*SPEF "ieee 1481-1999"
*DESIGN "sar_controller"
*DATE "18:03:37 Tuesday May 12, 2026"
*VENDOR "The OpenROAD Project"
*PROGRAM "OpenROAD"
*VERSION "v2.0-23079-g93b6f40ec"
*DESIGN_FLOW "NAME_SCOPE LOCAL" "PIN_CAP NONE"
*DIVIDER /
*DELIMITER :
*BUS_DELIMITER []
*T_UNIT 1 NS
*C_UNIT 1 PF
*R_UNIT 1 OHM
*L_UNIT 1 HENRY

*NAME_MAP
*3 clk
*4 clk_comp
*5 dac_n[0]
*6 dac_n[1]
*7 dac_n[2]
*8 dac_n[3]
*9 dac_n[4]
*10 dac_n[5]
*11 dac_n[6]
*12 dac_n[7]
*13 dac_p[0]
*14 dac_p[1]
*15 dac_p[2]
*16 dac_p[3]
*17 dac_p[4]
*18 dac_p[5]
*19 dac_p[6]
*20 dac_p[7]
*21 dout[0]
*22 dout[1]
*23 dout[2]
*24 dout[3]
*25 dout[4]
*26 dout[5]
*27 dout[6]
*28 dout[7]
*29 eoc
*30 out_comp_n
*31 out_comp_p
*32 phi_sample
*33 phi_sample_n
*34 rst_n
*35 \:61\.Y\[0\]
*36 \:61\.Y\[1\]
*37 \:61\.Y\[2\]
*38 \:61\.Y\[3\]
*39 _000_
*40 _001_
*41 _002_
*42 _003_
*43 _004_
*44 _005_
*45 _006_
*46 _007_
*47 _008_
*48 _009_
*49 _010_
*50 _011_
*51 _012_
*52 _013_
*53 _014_
*54 _015_
*55 _016_
*56 _017_
*57 _018_
*58 _019_
*59 _020_
*60 _021_
*61 _022_
*62 _023_
*63 _024_
*64 _025_
*65 _026_
*66 _027_
*67 _028_
*68 _029_
*69 _030_
*70 _031_
*71 _032_
*72 _033_
*73 _034_
*74 _035_
*75 _036_
*76 _037_
*77 _038_
*78 _039_
*79 _040_
*80 _041_
*81 _042_
*82 _043_
*83 _044_
*84 _045_
*85 _046_
*86 _047_
*87 _048_
*88 _049_
*89 _050_
*90 _051_
*91 _052_
*92 _053_
*93 _054_
*94 _055_
*95 _056_
*96 _057_
*97 _058_
*98 _059_
*99 _060_
*100 _061_
*101 _062_
*102 _063_
*103 _064_
*104 _065_
*105 _066_
*106 _067_
*107 _068_
*108 _069_
*109 _070_
*110 _071_
*111 clk_regs
*112 clknet_0_clk
*113 clknet_0_clk_regs
*114 clknet_1_0__leaf_clk
*115 clknet_2_0__leaf_clk_regs
*116 clknet_2_1__leaf_clk_regs
*117 clknet_2_2__leaf_clk_regs
*118 clknet_2_3__leaf_clk_regs
*119 net1
*120 net10
*121 net11
*122 net12
*123 net13
*124 net14
*125 net15
*126 net16
*127 net17
*128 net18
*129 net19
*130 net2
*131 net20
*132 net21
*133 net22
*134 net23
*135 net24
*136 net25
*137 net26
*138 net27
*139 net28
*140 net29
*141 net3
*142 net30
*143 net31
*144 net32
*145 net33
*146 net34
*147 net35
*148 net36
*149 net37
*150 net38
*151 net39
*152 net4
*153 net40
*154 net41
*155 net42
*156 net43
*157 net44
*158 net45
*159 net46
*160 net47
*161 net48
*162 net49
*163 net5
*164 net50
*165 net51
*166 net6
*167 net7
*168 net8
*169 net9
*170 state\[0\]
*171 state\[1\]
*172 state\[2\]
*173 state\[3\]
*174 FILLER_0_10
*175 FILLER_0_100
*176 FILLER_0_103
*177 FILLER_0_109
*178 FILLER_0_113
*179 FILLER_0_118
*180 FILLER_0_13
*181 FILLER_0_19
*182 FILLER_0_22
*183 FILLER_0_29
*184 FILLER_0_32
*185 FILLER_0_37
*186 FILLER_0_40
*187 FILLER_0_46
*188 FILLER_0_49
*189 FILLER_0_55
*190 FILLER_0_57
*191 FILLER_0_6
*192 FILLER_0_60
*193 FILLER_0_64
*194 FILLER_0_67
*195 FILLER_0_73
*196 FILLER_0_76
*197 FILLER_0_82
*198 FILLER_0_85
*199 FILLER_0_91
*200 FILLER_0_94
*201 FILLER_10_114
*202 FILLER_10_117
*203 FILLER_10_12
*204 FILLER_10_120
*205 FILLER_10_123
*206 FILLER_10_126
*207 FILLER_10_15
*208 FILLER_10_18
*209 FILLER_10_21
*210 FILLER_10_24
*211 FILLER_10_27
*212 FILLER_10_29
*213 FILLER_10_3
*214 FILLER_10_32
*215 FILLER_10_35
*216 FILLER_10_38
*217 FILLER_10_41
*218 FILLER_10_49
*219 FILLER_10_52
*220 FILLER_10_55
*221 FILLER_10_6
*222 FILLER_10_9
*223 FILLER_11_101
*224 FILLER_11_104
*225 FILLER_11_113
*226 FILLER_11_12
*227 FILLER_11_15
*228 FILLER_11_18
*229 FILLER_11_21
*230 FILLER_11_24
*231 FILLER_11_27
*232 FILLER_11_30
*233 FILLER_11_33
*234 FILLER_11_36
*235 FILLER_11_39
*236 FILLER_11_42
*237 FILLER_11_45
*238 FILLER_11_48
*239 FILLER_11_51
*240 FILLER_11_54
*241 FILLER_11_57
*242 FILLER_11_6
*243 FILLER_11_79
*244 FILLER_11_9
*245 FILLER_11_98
*246 FILLER_12_102
*247 FILLER_12_12
*248 FILLER_12_27
*249 FILLER_12_29
*250 FILLER_12_3
*251 FILLER_12_32
*252 FILLER_12_38
*253 FILLER_12_41
*254 FILLER_12_44
*255 FILLER_12_47
*256 FILLER_12_50
*257 FILLER_12_6
*258 FILLER_12_9
*259 FILLER_12_93
*260 FILLER_12_96
*261 FILLER_12_99
*262 FILLER_13_102
*263 FILLER_13_111
*264 FILLER_13_113
*265 FILLER_13_116
*266 FILLER_13_119
*267 FILLER_13_122
*268 FILLER_13_125
*269 FILLER_13_3
*270 FILLER_13_35
*271 FILLER_13_44
*272 FILLER_13_51
*273 FILLER_13_54
*274 FILLER_13_57
*275 FILLER_13_6
*276 FILLER_13_70
*277 FILLER_13_73
*278 FILLER_13_81
*279 FILLER_13_84
*280 FILLER_13_87
*281 FILLER_13_90
*282 FILLER_13_93
*283 FILLER_13_96
*284 FILLER_13_99
*285 FILLER_14_100
*286 FILLER_14_103
*287 FILLER_14_125
*288 FILLER_14_26
*289 FILLER_14_49
*290 FILLER_14_73
*291 FILLER_14_76
*292 FILLER_14_82
*293 FILLER_14_85
*294 FILLER_14_88
*295 FILLER_14_91
*296 FILLER_14_94
*297 FILLER_14_97
*298 FILLER_15_100
*299 FILLER_15_103
*300 FILLER_15_113
*301 FILLER_15_119
*302 FILLER_15_12
*303 FILLER_15_122
*304 FILLER_15_125
*305 FILLER_15_15
*306 FILLER_15_18
*307 FILLER_15_21
*308 FILLER_15_24
*309 FILLER_15_27
*310 FILLER_15_30
*311 FILLER_15_33
*312 FILLER_15_36
*313 FILLER_15_43
*314 FILLER_15_46
*315 FILLER_15_49
*316 FILLER_15_52
*317 FILLER_15_55
*318 FILLER_15_57
*319 FILLER_15_6
*320 FILLER_15_60
*321 FILLER_15_63
*322 FILLER_15_66
*323 FILLER_15_69
*324 FILLER_15_72
*325 FILLER_15_75
*326 FILLER_15_80
*327 FILLER_15_9
*328 FILLER_15_97
*329 FILLER_16_105
*330 FILLER_16_14
*331 FILLER_16_24
*332 FILLER_16_27
*333 FILLER_16_29
*334 FILLER_16_3
*335 FILLER_16_32
*336 FILLER_16_35
*337 FILLER_16_38
*338 FILLER_16_56
*339 FILLER_16_59
*340 FILLER_16_6
*341 FILLER_16_69
*342 FILLER_17_103
*343 FILLER_17_113
*344 FILLER_17_116
*345 FILLER_17_119
*346 FILLER_17_122
*347 FILLER_17_23
*348 FILLER_17_26
*349 FILLER_17_29
*350 FILLER_17_55
*351 FILLER_17_57
*352 FILLER_17_60
*353 FILLER_18_114
*354 FILLER_18_117
*355 FILLER_18_12
*356 FILLER_18_120
*357 FILLER_18_123
*358 FILLER_18_126
*359 FILLER_18_15
*360 FILLER_18_18
*361 FILLER_18_21
*362 FILLER_18_24
*363 FILLER_18_27
*364 FILLER_18_6
*365 FILLER_18_83
*366 FILLER_18_89
*367 FILLER_18_9
*368 FILLER_19_102
*369 FILLER_19_105
*370 FILLER_19_108
*371 FILLER_19_111
*372 FILLER_19_113
*373 FILLER_19_12
*374 FILLER_19_121
*375 FILLER_19_124
*376 FILLER_19_15
*377 FILLER_19_18
*378 FILLER_19_21
*379 FILLER_19_3
*380 FILLER_19_46
*381 FILLER_19_52
*382 FILLER_19_55
*383 FILLER_19_57
*384 FILLER_19_6
*385 FILLER_19_9
*386 FILLER_19_99
*387 FILLER_1_116
*388 FILLER_1_119
*389 FILLER_1_12
*390 FILLER_1_122
*391 FILLER_1_29
*392 FILLER_1_53
*393 FILLER_1_57
*394 FILLER_1_6
*395 FILLER_1_60
*396 FILLER_1_63
*397 FILLER_1_66
*398 FILLER_1_69
*399 FILLER_1_72
*400 FILLER_1_75
*401 FILLER_1_78
*402 FILLER_1_81
*403 FILLER_1_84
*404 FILLER_1_9
*405 FILLER_20_100
*406 FILLER_20_103
*407 FILLER_20_106
*408 FILLER_20_23
*409 FILLER_20_26
*410 FILLER_20_29
*411 FILLER_20_32
*412 FILLER_20_35
*413 FILLER_20_38
*414 FILLER_20_47
*415 FILLER_20_50
*416 FILLER_20_53
*417 FILLER_20_56
*418 FILLER_20_59
*419 FILLER_20_62
*420 FILLER_20_65
*421 FILLER_20_72
*422 FILLER_20_75
*423 FILLER_20_78
*424 FILLER_20_81
*425 FILLER_20_85
*426 FILLER_20_88
*427 FILLER_20_91
*428 FILLER_20_94
*429 FILLER_20_97
*430 FILLER_21_100
*431 FILLER_21_103
*432 FILLER_21_107
*433 FILLER_21_110
*434 FILLER_21_113
*435 FILLER_21_116
*436 FILLER_21_119
*437 FILLER_21_12
*438 FILLER_21_122
*439 FILLER_21_15
*440 FILLER_21_18
*441 FILLER_21_21
*442 FILLER_21_24
*443 FILLER_21_27
*444 FILLER_21_29
*445 FILLER_21_32
*446 FILLER_21_35
*447 FILLER_21_38
*448 FILLER_21_41
*449 FILLER_21_44
*450 FILLER_21_47
*451 FILLER_21_50
*452 FILLER_21_53
*453 FILLER_21_57
*454 FILLER_21_60
*455 FILLER_21_63
*456 FILLER_21_66
*457 FILLER_21_69
*458 FILLER_21_72
*459 FILLER_21_75
*460 FILLER_21_78
*461 FILLER_21_81
*462 FILLER_21_85
*463 FILLER_21_88
*464 FILLER_21_9
*465 FILLER_21_91
*466 FILLER_21_94
*467 FILLER_21_97
*468 FILLER_2_29
*469 FILLER_2_6
*470 FILLER_2_77
*471 FILLER_3_122
*472 FILLER_3_125
*473 FILLER_3_23
*474 FILLER_3_26
*475 FILLER_3_29
*476 FILLER_3_32
*477 FILLER_3_35
*478 FILLER_3_38
*479 FILLER_3_41
*480 FILLER_3_53
*481 FILLER_3_57
*482 FILLER_3_80
*483 FILLER_3_96
*484 FILLER_4_101
*485 FILLER_4_104
*486 FILLER_4_17
*487 FILLER_4_20
*488 FILLER_4_23
*489 FILLER_4_26
*490 FILLER_4_29
*491 FILLER_4_3
*492 FILLER_4_32
*493 FILLER_4_35
*494 FILLER_4_38
*495 FILLER_4_41
*496 FILLER_4_49
*497 FILLER_4_52
*498 FILLER_4_55
*499 FILLER_4_74
*500 FILLER_4_85
*501 FILLER_4_95
*502 FILLER_4_98
*503 FILLER_5_100
*504 FILLER_5_103
*505 FILLER_5_106
*506 FILLER_5_113
*507 FILLER_5_116
*508 FILLER_5_119
*509 FILLER_5_122
*510 FILLER_5_125
*511 FILLER_5_23
*512 FILLER_5_26
*513 FILLER_5_29
*514 FILLER_5_32
*515 FILLER_5_35
*516 FILLER_5_57
*517 FILLER_5_6
*518 FILLER_5_60
*519 FILLER_5_68
*520 FILLER_5_71
*521 FILLER_5_74
*522 FILLER_5_77
*523 FILLER_5_80
*524 FILLER_5_83
*525 FILLER_5_86
*526 FILLER_5_9
*527 FILLER_5_91
*528 FILLER_5_94
*529 FILLER_5_97
*530 FILLER_6_107
*531 FILLER_6_110
*532 FILLER_6_113
*533 FILLER_6_116
*534 FILLER_6_119
*535 FILLER_6_122
*536 FILLER_6_125
*537 FILLER_6_29
*538 FILLER_6_3
*539 FILLER_6_32
*540 FILLER_6_35
*541 FILLER_6_38
*542 FILLER_6_41
*543 FILLER_6_44
*544 FILLER_6_47
*545 FILLER_6_50
*546 FILLER_6_53
*547 FILLER_6_56
*548 FILLER_6_59
*549 FILLER_6_6
*550 FILLER_6_62
*551 FILLER_6_65
*552 FILLER_6_68
*553 FILLER_6_71
*554 FILLER_6_74
*555 FILLER_6_77
*556 FILLER_6_80
*557 FILLER_6_83
*558 FILLER_6_85
*559 FILLER_7_106
*560 FILLER_7_109
*561 FILLER_7_113
*562 FILLER_7_116
*563 FILLER_7_119
*564 FILLER_7_12
*565 FILLER_7_122
*566 FILLER_7_125
*567 FILLER_7_15
*568 FILLER_7_18
*569 FILLER_7_21
*570 FILLER_7_24
*571 FILLER_7_27
*572 FILLER_7_3
*573 FILLER_7_30
*574 FILLER_7_33
*575 FILLER_7_57
*576 FILLER_7_6
*577 FILLER_7_60
*578 FILLER_7_63
*579 FILLER_7_66
*580 FILLER_7_69
*581 FILLER_7_72
*582 FILLER_7_75
*583 FILLER_7_78
*584 FILLER_7_81
*585 FILLER_7_9
*586 FILLER_8_122
*587 FILLER_8_125
*588 FILLER_8_24
*589 FILLER_8_27
*590 FILLER_8_29
*591 FILLER_8_57
*592 FILLER_8_6
*593 FILLER_8_78
*594 FILLER_8_9
*595 FILLER_8_98
*596 FILLER_9_106
*597 FILLER_9_109
*598 FILLER_9_113
*599 FILLER_9_116
*600 FILLER_9_119
*601 FILLER_9_122
*602 FILLER_9_125
*603 FILLER_9_23
*604 FILLER_9_26
*605 FILLER_9_29
*606 FILLER_9_32
*607 FILLER_9_35
*608 FILLER_9_38
*609 FILLER_9_46
*610 FILLER_9_54
*611 FILLER_9_57
*612 FILLER_9_65
*613 FILLER_9_68
*614 FILLER_9_91
*615 FILLER_9_94
*616 FILLER_9_97
*617 PHY_EDGE_ROW_0_Left_22
*618 PHY_EDGE_ROW_0_Right_0
*619 PHY_EDGE_ROW_10_Left_32
*620 PHY_EDGE_ROW_10_Right_10
*621 PHY_EDGE_ROW_11_Left_33
*622 PHY_EDGE_ROW_11_Right_11
*623 PHY_EDGE_ROW_12_Left_34
*624 PHY_EDGE_ROW_12_Right_12
*625 PHY_EDGE_ROW_13_Left_35
*626 PHY_EDGE_ROW_13_Right_13
*627 PHY_EDGE_ROW_14_Left_36
*628 PHY_EDGE_ROW_14_Right_14
*629 PHY_EDGE_ROW_15_Left_37
*630 PHY_EDGE_ROW_15_Right_15
*631 PHY_EDGE_ROW_16_Left_38
*632 PHY_EDGE_ROW_16_Right_16
*633 PHY_EDGE_ROW_17_Left_39
*634 PHY_EDGE_ROW_17_Right_17
*635 PHY_EDGE_ROW_18_Left_40
*636 PHY_EDGE_ROW_18_Right_18
*637 PHY_EDGE_ROW_19_Left_41
*638 PHY_EDGE_ROW_19_Right_19
*639 PHY_EDGE_ROW_1_Left_23
*640 PHY_EDGE_ROW_1_Right_1
*641 PHY_EDGE_ROW_20_Left_42
*642 PHY_EDGE_ROW_20_Right_20
*643 PHY_EDGE_ROW_21_Left_43
*644 PHY_EDGE_ROW_21_Right_21
*645 PHY_EDGE_ROW_2_Left_24
*646 PHY_EDGE_ROW_2_Right_2
*647 PHY_EDGE_ROW_3_Left_25
*648 PHY_EDGE_ROW_3_Right_3
*649 PHY_EDGE_ROW_4_Left_26
*650 PHY_EDGE_ROW_4_Right_4
*651 PHY_EDGE_ROW_5_Left_27
*652 PHY_EDGE_ROW_5_Right_5
*653 PHY_EDGE_ROW_6_Left_28
*654 PHY_EDGE_ROW_6_Right_6
*655 PHY_EDGE_ROW_7_Left_29
*656 PHY_EDGE_ROW_7_Right_7
*657 PHY_EDGE_ROW_8_Left_30
*658 PHY_EDGE_ROW_8_Right_8
*659 PHY_EDGE_ROW_9_Left_31
*660 PHY_EDGE_ROW_9_Right_9
*661 TAP_TAPCELL_ROW_0_44
*662 TAP_TAPCELL_ROW_0_45
*663 TAP_TAPCELL_ROW_0_46
*664 TAP_TAPCELL_ROW_0_47
*665 TAP_TAPCELL_ROW_10_66
*666 TAP_TAPCELL_ROW_10_67
*667 TAP_TAPCELL_ROW_11_68
*668 TAP_TAPCELL_ROW_11_69
*669 TAP_TAPCELL_ROW_12_70
*670 TAP_TAPCELL_ROW_12_71
*671 TAP_TAPCELL_ROW_13_72
*672 TAP_TAPCELL_ROW_13_73
*673 TAP_TAPCELL_ROW_14_74
*674 TAP_TAPCELL_ROW_14_75
*675 TAP_TAPCELL_ROW_15_76
*676 TAP_TAPCELL_ROW_15_77
*677 TAP_TAPCELL_ROW_16_78
*678 TAP_TAPCELL_ROW_16_79
*679 TAP_TAPCELL_ROW_17_80
*680 TAP_TAPCELL_ROW_17_81
*681 TAP_TAPCELL_ROW_18_82
*682 TAP_TAPCELL_ROW_18_83
*683 TAP_TAPCELL_ROW_19_84
*684 TAP_TAPCELL_ROW_19_85
*685 TAP_TAPCELL_ROW_1_48
*686 TAP_TAPCELL_ROW_1_49
*687 TAP_TAPCELL_ROW_20_86
*688 TAP_TAPCELL_ROW_20_87
*689 TAP_TAPCELL_ROW_21_88
*690 TAP_TAPCELL_ROW_21_89
*691 TAP_TAPCELL_ROW_21_90
*692 TAP_TAPCELL_ROW_21_91
*693 TAP_TAPCELL_ROW_2_50
*694 TAP_TAPCELL_ROW_2_51
*695 TAP_TAPCELL_ROW_3_52
*696 TAP_TAPCELL_ROW_3_53
*697 TAP_TAPCELL_ROW_4_54
*698 TAP_TAPCELL_ROW_4_55
*699 TAP_TAPCELL_ROW_5_56
*700 TAP_TAPCELL_ROW_5_57
*701 TAP_TAPCELL_ROW_6_58
*702 TAP_TAPCELL_ROW_6_59
*703 TAP_TAPCELL_ROW_7_60
*704 TAP_TAPCELL_ROW_7_61
*705 TAP_TAPCELL_ROW_8_62
*706 TAP_TAPCELL_ROW_8_63
*707 TAP_TAPCELL_ROW_9_64
*708 TAP_TAPCELL_ROW_9_65
*709 _072_
*710 _073_
*711 _074_
*712 _075_
*713 _076_
*714 _077_
*715 _078_
*716 _079_
*717 _080_
*718 _081_
*719 _082_
*720 _083_
*721 _084_
*722 _085_
*723 _086_
*724 _087_
*725 _088_
*726 _089_
*727 _090_
*728 _091_
*729 _092_
*730 _093_
*731 _094_
*732 _095_
*733 _096_
*734 _097_
*735 _098_
*736 _099_
*737 _100_
*738 _101_
*739 _102_
*740 _103_
*741 _104_
*742 _105_
*743 _106_
*744 _107_
*745 _108_
*746 _109_
*747 _110_
*748 _111_
*749 _112_
*750 _113_
*751 _114_
*752 _115_
*753 _116_
*754 _117_
*755 _118_
*756 _119_
*757 _120_
*758 _121_
*759 _122_
*760 _123_
*761 _124_
*762 _125_
*763 _126_
*764 _127_
*765 _128_
*766 _129_
*767 _130_
*768 _131_
*769 _132_
*770 _133_
*771 _134_
*772 _135_
*773 _136_
*774 _137_
*775 _138_
*776 _139_
*777 _140_
*778 _141_
*779 _142_
*780 _143_
*781 _144_
*782 _145_
*783 _146_
*784 _147_
*785 _148_
*786 _149_
*787 _150_
*788 _151_
*789 _152_
*790 _153_
*791 _154_
*792 _155_
*793 _156_
*794 _157_
*795 _158_
*796 _159_
*797 _160_
*798 _161_
*799 _162_
*800 _163_
*801 _164_
*802 _165_
*803 _166_
*804 _167_
*805 _168_
*806 _169_
*807 _170_
*808 _171_
*809 _172_
*810 _173_
*811 _174_
*812 _175_
*813 _176_
*814 _177_
*815 _178_
*816 _179_
*817 clkbuf_0_clk
*818 clkbuf_0_clk_regs
*819 clkbuf_1_0__f_clk
*820 clkbuf_2_0__f_clk_regs
*821 clkbuf_2_1__f_clk_regs
*822 clkbuf_2_2__f_clk_regs
*823 clkbuf_2_3__f_clk_regs
*824 clkbuf_regs_0_clk
*825 clkload0
*826 clkload1
*827 clkload2
*828 fanout10
*829 fanout11
*830 fanout12
*831 fanout9
*832 hold1
*833 hold2
*834 hold3
*835 hold4
*836 hold5
*837 hold6
*838 hold7
*839 hold8
*840 hold9
*841 input1
*842 input2
*843 max_cap32
*844 max_cap33
*845 output10
*846 output11
*847 output12
*848 output13
*849 output14
*850 output15
*851 output16
*852 output17
*853 output18
*854 output19
*855 output20
*856 output21
*857 output22
*858 output23
*859 output24
*860 output25
*861 output26
*862 output27
*863 output28
*864 output29
*865 output3
*866 output30
*867 output4
*868 output5
*869 output6
*870 output7
*871 output8
*872 output9
*873 place33
*874 place34
*875 place35
*876 place36
*877 place37
*878 wire31

*PORTS
clk I
clk_comp O
dac_n[0] O
dac_n[1] O
dac_n[2] O
dac_n[3] O
dac_n[4] O
dac_n[5] O
dac_n[6] O
dac_n[7] O
dac_p[0] O
dac_p[1] O
dac_p[2] O
dac_p[3] O
dac_p[4] O
dac_p[5] O
dac_p[6] O
dac_p[7] O
dout[0] O
dout[1] O
dout[2] O
dout[3] O
dout[4] O
dout[5] O
dout[6] O
dout[7] O
eoc O
out_comp_n I
out_comp_p I
phi_sample O
phi_sample_n O
rst_n I

*D_NET *3 0.00826783
*CONN
*P clk I
*I *817:A I *D sky130_fd_sc_hd__clkbuf_16
*I *824:A I *D sky130_fd_sc_hd__clkbuf_16
*CAP
1 clk 0.00161524
2 *817:A 0.000822673
3 *824:A 0.000830209
4 *3:11 0.00326812
5 *824:A *720:B 0.000217708
6 *824:A *723:C 0
7 *824:A *723:D 3.88374e-05
8 *824:A *725:A_N 4.19967e-05
9 *824:A *725:B 0
10 *824:A *756:A1 0.000221417
11 *824:A *795:D 0.000116158
12 *824:A *874:A 2.54692e-05
13 *824:A *39:12 0
14 *824:A *93:10 2.46007e-05
15 *824:A *108:14 3.86607e-05
16 *824:A *146:66 3.86607e-05
17 *824:A *146:104 0.000182022
18 *824:A *147:10 0
19 *824:A *147:63 0
20 *824:A *148:10 0
21 *824:A *149:10 0.000114492
22 *824:A *149:12 0.000162318
23 *824:A *170:32 5.13616e-06
24 *824:A *170:34 7.19906e-05
25 *824:A *170:38 0.000348052
26 *824:A *171:26 8.40667e-05
*RES
1 clk *3:11 27.215 
2 *3:11 *824:A 25.595 
3 *3:11 *817:A 17.96 
*END

*D_NET *4 0.000592972
*CONN
*P clk_comp O
*I *865:X O *D sky130_fd_sc_hd__buf_1
*CAP
1 clk_comp 0.000296486
2 *865:X 0.000296486
*RES
1 *865:X clk_comp 6.37677 
*END

*D_NET *5 0.000751264
*CONN
*P dac_n[0] O
*I *867:X O *D sky130_fd_sc_hd__clkbuf_1
*CAP
1 dac_n[0] 0.000375632
2 *867:X 0.000375632
3 dac_n[0] dac_n[1] 0
4 dac_n[0] dac_p[7] 0
*RES
1 *867:X dac_n[0] 9.84 
*END

*D_NET *6 0.000761878
*CONN
*P dac_n[1] O
*I *868:X O *D sky130_fd_sc_hd__clkbuf_1
*CAP
1 dac_n[1] 0.000367178
2 *868:X 0.000367178
3 dac_n[1] dac_n[2] 0
4 dac_n[1] *867:A 2.75229e-05
5 dac_n[0] dac_n[1] 0
*RES
1 *868:X dac_n[1] 9.84 
*END

*D_NET *7 0.000751264
*CONN
*P dac_n[2] O
*I *869:X O *D sky130_fd_sc_hd__clkbuf_1
*CAP
1 dac_n[2] 0.000375632
2 *869:X 0.000375632
3 dac_n[2] dac_n[3] 0
4 dac_n[1] dac_n[2] 0
*RES
1 *869:X dac_n[2] 9.84 
*END

*D_NET *8 0.000755412
*CONN
*P dac_n[3] O
*I *870:X O *D sky130_fd_sc_hd__clkbuf_1
*CAP
1 dac_n[3] 0.000368514
2 *870:X 0.000368514
3 dac_n[3] dac_n[4] 0
4 dac_n[3] *869:A 1.83847e-05
5 dac_n[2] dac_n[3] 0
*RES
1 *870:X dac_n[3] 9.84 
*END

*D_NET *9 0.000754116
*CONN
*P dac_n[4] O
*I *871:X O *D sky130_fd_sc_hd__clkbuf_1
*CAP
1 dac_n[4] 0.000373554
2 *871:X 0.000373554
3 dac_n[4] dac_n[5] 0
4 dac_n[4] *871:A 7.00889e-06
5 dac_n[3] dac_n[4] 0
*RES
1 *871:X dac_n[4] 9.84 
*END

*D_NET *10 0.000751264
*CONN
*P dac_n[5] O
*I *872:X O *D sky130_fd_sc_hd__clkbuf_1
*CAP
1 dac_n[5] 0.000375632
2 *872:X 0.000375632
3 dac_n[5] dac_n[6] 0
4 dac_n[4] dac_n[5] 0
*RES
1 *872:X dac_n[5] 9.84 
*END

*D_NET *11 0.00092089
*CONN
*P dac_n[6] O
*I *845:X O *D sky130_fd_sc_hd__clkbuf_1
*CAP
1 dac_n[6] 0.000302144
2 *845:X 0.000302144
3 dac_n[6] dac_n[7] 0
4 dac_n[6] *841:A 0.000316602
5 dac_n[5] dac_n[6] 0
*RES
1 *845:X dac_n[6] 9.84 
*END

*D_NET *12 0.0012546
*CONN
*P dac_n[7] O
*I *846:X O *D sky130_fd_sc_hd__clkbuf_1
*CAP
1 dac_n[7] 0.000627298
2 *846:X 0.000627298
3 dac_n[7] *841:A 0
4 dac_n[7] *845:A 0
5 dac_n[6] dac_n[7] 0
*RES
1 *846:X dac_n[7] 13.605 
*END

*D_NET *13 0.00100823
*CONN
*P dac_p[0] O
*I *847:X O *D sky130_fd_sc_hd__clkbuf_1
*CAP
1 dac_p[0] 0.000504116
2 *847:X 0.000504116
3 dac_p[0] dac_p[1] 0
4 dac_p[0] dout[0] 0
*RES
1 *847:X dac_p[0] 11.565 
*END

*D_NET *14 0.000774765
*CONN
*P dac_p[1] O
*I *848:X O *D sky130_fd_sc_hd__clkbuf_1
*CAP
1 dac_p[1] 0.000327486
2 *848:X 0.000327486
3 dac_p[1] dac_p[2] 0
4 dac_p[1] dout[0] 0.000119792
5 dac_p[0] dac_p[1] 0
*RES
1 *848:X dac_p[1] 9.84 
*END

*D_NET *15 0.000755412
*CONN
*P dac_p[2] O
*I *849:X O *D sky130_fd_sc_hd__clkbuf_1
*CAP
1 dac_p[2] 0.000368514
2 *849:X 0.000368514
3 dac_p[2] dac_p[3] 0
4 dac_p[2] *848:A 1.83847e-05
5 dac_p[1] dac_p[2] 0
*RES
1 *849:X dac_p[2] 9.84 
*END

*D_NET *16 0.000761878
*CONN
*P dac_p[3] O
*I *850:X O *D sky130_fd_sc_hd__clkbuf_1
*CAP
1 dac_p[3] 0.000367178
2 *850:X 0.000367178
3 dac_p[3] dac_p[4] 0
4 dac_p[3] *850:A 2.75229e-05
5 dac_p[2] dac_p[3] 0
*RES
1 *850:X dac_p[3] 9.84 
*END

*D_NET *17 0.000752986
*CONN
*P dac_p[4] O
*I *851:X O *D sky130_fd_sc_hd__clkbuf_1
*CAP
1 dac_p[4] 0.000376493
2 *851:X 0.000376493
3 dac_p[4] dac_p[5] 0
4 dac_p[3] dac_p[4] 0
*RES
1 *851:X dac_p[4] 9.84 
*END

*D_NET *18 0.000981684
*CONN
*P dac_p[5] O
*I *852:X O *D sky130_fd_sc_hd__clkbuf_1
*CAP
1 dac_p[5] 0.000490842
2 *852:X 0.000490842
3 dac_p[5] dac_p[6] 0
4 dac_p[4] dac_p[5] 0
*RES
1 *852:X dac_p[5] 11.43 
*END

*D_NET *19 0.000751264
*CONN
*P dac_p[6] O
*I *853:X O *D sky130_fd_sc_hd__clkbuf_1
*CAP
1 dac_p[6] 0.000375632
2 *853:X 0.000375632
3 dac_p[6] dac_p[7] 0
4 dac_p[5] dac_p[6] 0
*RES
1 *853:X dac_p[6] 9.84 
*END

*D_NET *20 0.000755412
*CONN
*P dac_p[7] O
*I *854:X O *D sky130_fd_sc_hd__clkbuf_1
*CAP
1 dac_p[7] 0.000368514
2 *854:X 0.000368514
3 dac_p[7] *853:A 1.83847e-05
4 dac_n[0] dac_p[7] 0
5 dac_p[6] dac_p[7] 0
*RES
1 *854:X dac_p[7] 9.84 
*END

*D_NET *21 0.00104766
*CONN
*P dout[0] O
*I *855:X O *D sky130_fd_sc_hd__clkbuf_1
*CAP
1 dout[0] 0.000423514
2 *855:X 0.000423514
3 dout[0] *847:A 8.08439e-05
4 dac_p[0] dout[0] 0
5 dac_p[1] dout[0] 0.000119792
*RES
1 *855:X dout[0] 9.94677 
*END

*D_NET *22 0.000655916
*CONN
*P dout[1] O
*I *856:X O *D sky130_fd_sc_hd__clkbuf_1
*CAP
1 dout[1] 0.000327958
2 *856:X 0.000327958
3 dout[1] *847:A 0
*RES
1 *856:X dout[1] 7.3443 
*END

*D_NET *23 0.000649582
*CONN
*P dout[2] O
*I *857:X O *D sky130_fd_sc_hd__clkbuf_1
*CAP
1 dout[2] 0.000324791
2 *857:X 0.000324791
3 dout[2] *847:A 0
*RES
1 *857:X dout[2] 7.3443 
*END

*D_NET *24 0.000625386
*CONN
*P dout[3] O
*I *858:X O *D sky130_fd_sc_hd__clkbuf_1
*CAP
1 dout[3] 0.000312693
2 *858:X 0.000312693
3 dout[3] *856:A 0
*RES
1 *858:X dout[3] 6.83197 
*END

*D_NET *25 0.000564901
*CONN
*P dout[4] O
*I *859:X O *D sky130_fd_sc_hd__clkbuf_1
*CAP
1 dout[4] 0.00028245
2 *859:X 0.00028245
3 dout[4] *101:52 0
*RES
1 *859:X dout[4] 6.12177 
*END

*D_NET *26 0.000998054
*CONN
*P dout[5] O
*I *860:X O *D sky130_fd_sc_hd__clkbuf_1
*CAP
1 dout[5] 0.000412785
2 *860:X 0.000412785
3 dout[5] *790:CLK 0.000118513
4 dout[5] *790:D 5.39718e-05
5 dout[5] *101:63 0
*RES
1 *860:X dout[5] 8.41503 
*END

*D_NET *27 0.000868703
*CONN
*P dout[6] O
*I *861:X O *D sky130_fd_sc_hd__clkbuf_1
*CAP
1 dout[6] 0.000434351
2 *861:X 0.000434351
3 dout[6] *790:CLK 0
4 dout[6] *117:99 0
*RES
1 *861:X dout[6] 9.3843 
*END

*D_NET *28 0.00077407
*CONN
*P dout[7] O
*I *862:X O *D sky130_fd_sc_hd__clkbuf_1
*CAP
1 dout[7] 0.000387035
2 *862:X 0.000387035
3 dout[7] *863:A 0
*RES
1 *862:X dout[7] 7.90677 
*END

*D_NET *29 0.000887537
*CONN
*P eoc O
*I *863:X O *D sky130_fd_sc_hd__clkbuf_1
*CAP
1 eoc 0.000433214
2 *863:X 0.000433214
3 eoc *862:A 2.11084e-05
*RES
1 *863:X eoc 8.37697 
*END

*D_NET *31 0.00114549
*CONN
*P out_comp_p I
*I *841:A I *D sky130_fd_sc_hd__clkbuf_1
*CAP
1 out_comp_p 0.000412225
2 *841:A 0.000412225
3 *841:A *845:A 4.43871e-06
4 dac_n[6] *841:A 0.000316602
5 dac_n[7] *841:A 0
*RES
1 out_comp_p *841:A 8.9833 
*END

*D_NET *32 0.000581987
*CONN
*P phi_sample O
*I *864:X O *D sky130_fd_sc_hd__clkbuf_1
*CAP
1 phi_sample 0.000253931
2 *864:X 0.000253931
3 phi_sample *846:A 7.41259e-05
*RES
1 *864:X phi_sample 6.12177 
*END

*D_NET *33 0.000629517
*CONN
*P phi_sample_n O
*I *866:X O *D sky130_fd_sc_hd__clkbuf_1
*CAP
1 phi_sample_n 0.000293787
2 *866:X 0.000293787
3 phi_sample_n *819:A 4.19426e-05
*RES
1 *866:X phi_sample_n 6.83197 
*END

*D_NET *34 0.000894056
*CONN
*P rst_n I
*I *842:A I *D sky130_fd_sc_hd__buf_1
*CAP
1 rst_n 0.000447028
2 *842:A 0.000447028
*RES
1 rst_n *842:A 11.55 
*END

*D_NET *35 0.000849841
*CONN
*I *835:A I *D sky130_fd_sc_hd__dlygate4sd3_1
*I *716:Y O *D sky130_fd_sc_hd__a21oi_1
*CAP
1 *835:A 0.000353039
2 *716:Y 0.000353039
3 *835:A *716:B1 0
4 *835:A *118:17 0
5 *835:A *118:50 7.16181e-05
6 *835:A *121:14 6.77062e-05
7 *835:A *122:10 0
8 *835:A *154:10 4.43871e-06
*RES
1 *716:Y *835:A 13.47 
*END

*D_NET *36 0.000403527
*CONN
*I *795:D I *D sky130_fd_sc_hd__dfrtp_4
*I *721:X O *D sky130_fd_sc_hd__and3_1
*CAP
1 *795:D 7.18436e-05
2 *721:X 7.18436e-05
3 *795:D *723:D 0.000116158
4 *795:D *796:RESET_B 2.75229e-05
5 *824:A *795:D 0.000116158
*RES
1 *721:X *795:D 9.03 
*END

*D_NET *37 0.000450264
*CONN
*I *796:D I *D sky130_fd_sc_hd__dfrtp_4
*I *726:X O *D sky130_fd_sc_hd__a21o_1
*CAP
1 *796:D 0.000123862
2 *726:X 0.000123862
3 *796:D *767:B1 0
4 *796:D *768:A 0.000118513
5 *796:D *768:B 0
6 *796:D *130:33 8.40269e-05
*RES
1 *726:X *796:D 9.375 
*END

*D_NET *38 0.00182218
*CONN
*I *797:D I *D sky130_fd_sc_hd__dfrtp_4
*I *728:X O *D sky130_fd_sc_hd__a21o_1
*CAP
1 *797:D 0.000582696
2 *728:X 0.000582696
3 *797:D *770:B1 9.37731e-05
4 *797:D *771:B1 1.15688e-05
5 *797:D *772:B1 8.49205e-05
6 *797:D *773:B1 0.000108282
7 *797:D *807:CLK 0.000224644
8 *797:D *808:SET_B 9.58829e-06
9 *797:D *833:A 6.14433e-05
10 *797:D *113:8 4.80285e-05
11 *797:D *116:91 1.45348e-05
*RES
1 *728:X *797:D 17.0588 
*END

*D_NET *39 0.0145767
*CONN
*I *801:D I *D sky130_fd_sc_hd__dfrtp_1
*I *733:B I *D sky130_fd_sc_hd__and2_4
*I *785:A_N I *D sky130_fd_sc_hd__and2b_1
*I *734:A_N I *D sky130_fd_sc_hd__and2b_1
*I *774:B I *D sky130_fd_sc_hd__nor2_1
*I *715:X O *D sky130_fd_sc_hd__and4bb_4
*CAP
1 *801:D 0.00142527
2 *733:B 0
3 *785:A_N 0
4 *734:A_N 0.000174985
5 *774:B 0.000124849
6 *715:X 0
7 *39:41 0.000640981
8 *39:27 0.00051883
9 *39:12 0.00114626
10 *39:6 0.00239385
11 *734:A_N *734:B 1.71013e-05
12 *734:A_N *785:B 0.000231819
13 *734:A_N *847:A 0.000136587
14 *734:A_N *856:A 0
15 *734:A_N *857:A 8.83131e-05
16 *734:A_N *126:10 2.98644e-05
17 *774:B *765:S 0.000197841
18 *774:B *775:A2 5.83121e-06
19 *774:B *87:49 1.19928e-05
20 *774:B *145:46 4.82919e-05
21 *801:D *723:C 0.000355882
22 *801:D *725:B 7.78085e-05
23 *801:D *726:A1 0
24 *801:D *726:A2 4.82919e-05
25 *801:D *759:B 0
26 *801:D *767:B1 0.000163199
27 *801:D *799:SET_B 0
28 *801:D *801:CLK 0.000612968
29 *801:D *840:A 2.16917e-05
30 *39:12 *723:C 0.000181897
31 *39:12 *728:B1 0.000183738
32 *39:12 *730:B 6.65973e-05
33 *39:12 *742:C_N 5.16348e-05
34 *39:12 *752:C 7.21296e-06
35 *39:12 *752:D_N 0
36 *39:12 *759:A 0
37 *39:12 *760:B1_N 0.000512447
38 *39:12 *765:S 0.000517134
39 *39:12 *854:A 0
40 *39:12 *73:10 0.000113909
41 *39:12 *92:12 6.28843e-05
42 *39:12 *94:12 1.07797e-05
43 *39:12 *94:14 8.09021e-06
44 *39:12 *98:12 0.000125563
45 *39:12 *147:10 0.000325808
46 *39:12 *148:16 0.000342675
47 *39:27 *733:A 0.000192509
48 *39:27 *775:A1 9.55262e-06
49 *39:27 *820:A 0.00023003
50 *39:41 *735:A1 0.000119585
51 *39:41 *761:S 5.85769e-05
52 *39:41 *775:A1 3.21772e-05
53 *39:41 *780:A 4.77769e-05
54 *39:41 *785:B 0.000112561
55 *39:41 *786:C 5.02134e-05
56 *39:41 *820:A 0.000418808
57 *39:41 *857:A 8.44136e-05
58 *39:41 *99:34 0.00070512
59 *39:41 *102:10 0.00128937
60 *39:41 *108:46 0.000243116
61 *824:A *39:12 0
*RES
1 *715:X *39:6 3.6 
2 *39:6 *39:12 24.885 
3 *39:12 *774:B 6.45 
4 *39:12 *39:27 4.175 
5 *39:27 *39:41 20.13 
6 *39:41 *734:A_N 10.115 
7 *39:41 *785:A_N 1.6 
8 *39:27 *733:B 1.6 
9 *39:6 *801:D 27.825 
*END

*D_NET *40 0.000812411
*CONN
*I *787:D I *D sky130_fd_sc_hd__dfrtp_1
*I *735:X O *D sky130_fd_sc_hd__o21a_1
*CAP
1 *787:D 0.000268056
2 *735:X 0.000268056
3 *787:D *735:A2 3.23663e-05
4 *787:D *735:B1 5.30673e-05
5 *787:D *780:A 9.5433e-05
6 *787:D *849:A 9.5433e-05
*RES
1 *735:X *787:D 11.19 
*END

*D_NET *41 0.000552499
*CONN
*I *788:D I *D sky130_fd_sc_hd__dfrtp_1
*I *738:X O *D sky130_fd_sc_hd__or2_1
*CAP
1 *788:D 0.000173901
2 *738:X 0.000173901
3 *788:D *738:A 0.000204698
4 *788:D *738:B 0
*RES
1 *738:X *788:D 10.23 
*END

*D_NET *42 0.000637573
*CONN
*I *789:D I *D sky130_fd_sc_hd__dfrtp_1
*I *741:X O *D sky130_fd_sc_hd__o21a_1
*CAP
1 *789:D 0.000209181
2 *741:X 0.000209181
3 *789:D *789:CLK 8.3303e-06
4 *789:D *99:34 7.4027e-05
5 *789:D *115:20 0.000136853
*RES
1 *741:X *789:D 10.29 
*END

*D_NET *43 0.000369937
*CONN
*I *790:D I *D sky130_fd_sc_hd__dfrtp_1
*I *745:X O *D sky130_fd_sc_hd__and2_1
*CAP
1 *790:D 0.000157982
2 *745:X 0.000157982
3 *790:D *101:63 0
4 dout[5] *790:D 5.39718e-05
*RES
1 *745:X *790:D 9.465 
*END

*D_NET *44 0.000282398
*CONN
*I *791:D I *D sky130_fd_sc_hd__dfstp_1
*I *749:X O *D sky130_fd_sc_hd__or2_1
*CAP
1 *791:D 6.38375e-05
2 *749:X 6.38375e-05
3 *791:D *748:A1 1.83756e-05
4 *791:D *749:A 6.47516e-05
5 *791:D *791:SET_B 2.75145e-05
6 *791:D *802:SET_B 4.40812e-05
*RES
1 *749:X *791:D 9.03 
*END

*D_NET *45 0.000930844
*CONN
*I *792:D I *D sky130_fd_sc_hd__dfrtp_1
*I *751:X O *D sky130_fd_sc_hd__and2_1
*CAP
1 *792:D 0.000178651
2 *751:X 0.000178651
3 *792:D *750:A0 0.000185013
4 *792:D *751:B 5.80663e-05
5 *792:D *792:RESET_B 2.49909e-05
6 *792:D *816:SET_B 0.000203634
7 *792:D *856:A 0.000101839
8 *792:D *101:32 0
*RES
1 *751:X *792:D 12 
*END

*D_NET *46 0.000521475
*CONN
*I *793:D I *D sky130_fd_sc_hd__dfstp_1
*I *755:X O *D sky130_fd_sc_hd__or2_1
*CAP
1 *793:D 0.000131844
2 *755:X 0.000131844
3 *793:D *749:A 0.000116211
4 *793:D *755:B 0.000116211
5 *793:D *145:80 2.53645e-05
*RES
1 *755:X *793:D 9.72 
*END

*D_NET *47 0.000485954
*CONN
*I *798:D I *D sky130_fd_sc_hd__dfrtp_4
*I *756:X O *D sky130_fd_sc_hd__o22a_1
*CAP
1 *798:D 0.000169777
2 *756:X 0.000169777
3 *798:D *756:A2 9.71067e-05
4 *798:D *756:B2 4.92935e-05
5 *798:D *798:RESET_B 0
6 *798:D *122:40 0
*RES
1 *756:X *798:D 9.81 
*END

*D_NET *48 0.000932682
*CONN
*I *799:D I *D sky130_fd_sc_hd__dfstp_1
*I *758:X O *D sky130_fd_sc_hd__o22a_1
*CAP
1 *799:D 0.000178431
2 *758:X 0.000178431
3 *799:D *730:B 0.000136884
4 *799:D *759:A 0.000159763
5 *799:D *94:14 0.000156842
6 *799:D *147:23 0.000122331
*RES
1 *758:X *799:D 11.76 
*END

*D_NET *49 0.000575902
*CONN
*I *800:D I *D sky130_fd_sc_hd__dfstp_1
*I *760:X O *D sky130_fd_sc_hd__o21ba_1
*CAP
1 *800:D 0.000220226
2 *760:X 0.000220226
3 *800:D *756:A2 2.05056e-05
4 *800:D *760:A2 3.09179e-05
5 *800:D *760:B1_N 8.40269e-05
6 *800:D *798:CLK 0
7 *800:D *798:RESET_B 0
8 *800:D *118:50 0
9 *800:D *122:21 0
*RES
1 *760:X *800:D 10.77 
*END

*D_NET *50 0.00104996
*CONN
*I *802:D I *D sky130_fd_sc_hd__dfstp_1
*I *762:X O *D sky130_fd_sc_hd__or2_1
*CAP
1 *802:D 0.000319614
2 *762:X 0.000319614
3 *802:D *766:B 0.000140905
4 *802:D *802:CLK 4.82919e-05
5 *802:D *838:A 4.43871e-06
6 *802:D *867:A 0.000146311
7 *802:D *868:A 7.07879e-05
*RES
1 *762:X *802:D 13.695 
*END

*D_NET *51 0.000396213
*CONN
*I *803:D I *D sky130_fd_sc_hd__dfrtp_1
*I *764:X O *D sky130_fd_sc_hd__and2_1
*CAP
1 *803:D 0.000171454
2 *764:X 0.000171454
3 *803:D *790:CLK 4.91189e-05
4 *803:D *117:99 4.18603e-06
*RES
1 *764:X *803:D 9.72 
*END

*D_NET *52 0.000808233
*CONN
*I *804:D I *D sky130_fd_sc_hd__dfstp_1
*I *766:X O *D sky130_fd_sc_hd__or2_1
*CAP
1 *804:D 0.000297613
2 *766:X 0.000297613
3 *804:D *766:A 4.92062e-05
4 *804:D *116:20 0.000149564
5 *804:D *154:38 1.4237e-05
*RES
1 *766:X *804:D 7.475 
*END

*D_NET *53 0.000300987
*CONN
*I *805:D I *D sky130_fd_sc_hd__dfrtp_1
*I *768:X O *D sky130_fd_sc_hd__or2_1
*CAP
1 *805:D 0.000103124
2 *768:X 0.000103124
3 *805:D *130:33 9.47394e-05
*RES
1 *768:X *805:D 5.03 
*END

*D_NET *54 0.0006594
*CONN