*SPEF "ieee 1481-1999"
*DESIGN "sar_controller"
*DATE "13:09:12 Friday May 15, 2026"
*VENDOR "The OpenROAD Project"
*PROGRAM "OpenROAD"
*VERSION "v2.0-23079-g93b6f40ec"
*DESIGN_FLOW "NAME_SCOPE LOCAL" "PIN_CAP NONE"
*DIVIDER /
*DELIMITER :
*BUS_DELIMITER []
*T_UNIT 1 NS
*C_UNIT 1 PF
*R_UNIT 1 OHM
*L_UNIT 1 HENRY

*NAME_MAP
*3 clk
*4 clk_comp
*5 dac_n[0]
*6 dac_n[1]
*7 dac_n[2]
*8 dac_n[3]
*9 dac_n[4]
*10 dac_n[5]
*11 dac_n[6]
*12 dac_n[7]
*13 dac_p[0]
*14 dac_p[1]
*15 dac_p[2]
*16 dac_p[3]
*17 dac_p[4]
*18 dac_p[5]
*19 dac_p[6]
*20 dac_p[7]
*21 dout[0]
*22 dout[1]
*23 dout[2]
*24 dout[3]
*25 dout[4]
*26 dout[5]
*27 dout[6]
*28 dout[7]
*29 eoc
*30 out_comp_n
*31 out_comp_p
*32 phi_sample
*33 phi_sample_n
*34 rst_n
*35 \:61\.Y\[0\]
*36 \:61\.Y\[1\]
*37 \:61\.Y\[2\]
*38 \:61\.Y\[3\]
*39 _000_
*40 _001_
*41 _002_
*42 _003_
*43 _004_
*44 _005_
*45 _006_
*46 _007_
*47 _008_
*48 _009_
*49 _010_
*50 _011_
*51 _012_
*52 _013_
*53 _014_
*54 _015_
*55 _016_
*56 _017_
*57 _018_
*58 _019_
*59 _020_
*60 _021_
*61 _022_
*62 _023_
*63 _024_
*64 _025_
*65 _026_
*66 _027_
*67 _028_
*68 _029_
*69 _030_
*70 _031_
*71 _032_
*72 _033_
*73 _034_
*74 _035_
*75 _036_
*76 _037_
*77 _038_
*78 _039_
*79 _040_
*80 _041_
*81 _042_
*82 _043_
*83 _044_
*84 _045_
*85 _046_
*86 _047_
*87 _048_
*88 _049_
*89 _050_
*90 _051_
*91 _052_
*92 _053_
*93 _054_
*94 _055_
*95 _056_
*96 _057_
*97 _058_
*98 _059_
*99 _060_
*100 _061_
*101 _062_
*102 _063_
*103 _064_
*104 _065_
*105 _066_
*106 _067_
*107 _068_
*108 _069_
*109 _070_
*110 _071_
*111 clk_regs
*112 clknet_0_clk
*113 clknet_0_clk_regs
*114 clknet_1_0__leaf_clk
*115 clknet_2_0__leaf_clk_regs
*116 clknet_2_1__leaf_clk_regs
*117 clknet_2_2__leaf_clk_regs
*118 clknet_2_3__leaf_clk_regs
*119 net1
*120 net10
*121 net11
*122 net12
*123 net13
*124 net14
*125 net15
*126 net16
*127 net17
*128 net18
*129 net19
*130 net2
*131 net20
*132 net21
*133 net22
*134 net23
*135 net24
*136 net25
*137 net26
*138 net27
*139 net28
*140 net29
*141 net3
*142 net30
*143 net31
*144 net32
*145 net33
*146 net34
*147 net35
*148 net36
*149 net37
*150 net38
*151 net39
*152 net4
*153 net40
*154 net41
*155 net42
*156 net43
*157 net45
*158 net46
*159 net47
*160 net48
*161 net49
*162 net5
*163 net50
*164 net51
*165 net52
*166 net6
*167 net7
*168 net8
*169 net9
*170 state\[0\]
*171 state\[1\]
*172 state\[2\]
*173 state\[3\]
*174 FILLER_0_107
*175 FILLER_0_3
*176 FILLER_0_39
*177 FILLER_0_51
*178 FILLER_0_55
*179 FILLER_0_57
*180 FILLER_0_63
*181 FILLER_0_85
*182 FILLER_10_23
*183 FILLER_10_26
*184 FILLER_10_50
*185 FILLER_10_83
*186 FILLER_10_85
*187 FILLER_11_14
*188 FILLER_11_17
*189 FILLER_11_20
*190 FILLER_11_23
*191 FILLER_11_3
*192 FILLER_11_6
*193 FILLER_11_84
*194 FILLER_12_14
*195 FILLER_12_24
*196 FILLER_12_27
*197 FILLER_12_29
*198 FILLER_12_32
*199 FILLER_12_35
*200 FILLER_12_38
*201 FILLER_12_41
*202 FILLER_12_44
*203 FILLER_12_6
*204 FILLER_12_88
*205 FILLER_12_98
*206 FILLER_13_23
*207 FILLER_13_26
*208 FILLER_13_32
*209 FILLER_13_55
*210 FILLER_13_57
*211 FILLER_13_60
*212 FILLER_14_12
*213 FILLER_14_3
*214 FILLER_14_49
*215 FILLER_14_6
*216 FILLER_14_9
*217 FILLER_15_40
*218 FILLER_15_55
*219 FILLER_15_9
*220 FILLER_16_29
*221 FILLER_16_32
*222 FILLER_16_35
*223 FILLER_16_38
*224 FILLER_16_45
*225 FILLER_16_6
*226 FILLER_16_73
*227 FILLER_17_27
*228 FILLER_17_29
*229 FILLER_17_32
*230 FILLER_17_35
*231 FILLER_17_38
*232 FILLER_17_41
*233 FILLER_17_44
*234 FILLER_17_47
*235 FILLER_17_50
*236 FILLER_17_53
*237 FILLER_17_57
*238 FILLER_17_69
*239 FILLER_17_72
*240 FILLER_17_79
*241 FILLER_1_106
*242 FILLER_1_3
*243 FILLER_1_60
*244 FILLER_1_7
*245 FILLER_2_106
*246 FILLER_2_15
*247 FILLER_2_29
*248 FILLER_2_32
*249 FILLER_2_35
*250 FILLER_2_38
*251 FILLER_2_75
*252 FILLER_2_78
*253 FILLER_3_103
*254 FILLER_3_28
*255 FILLER_3_31
*256 FILLER_3_34
*257 FILLER_3_57
*258 FILLER_3_6
*259 FILLER_3_70
*260 FILLER_3_73
*261 FILLER_3_76
*262 FILLER_3_84
*263 FILLER_3_99
*264 FILLER_4_21
*265 FILLER_4_24
*266 FILLER_4_27
*267 FILLER_4_3
*268 FILLER_4_36
*269 FILLER_4_39
*270 FILLER_4_42
*271 FILLER_4_53
*272 FILLER_4_56
*273 FILLER_4_60
*274 FILLER_4_63
*275 FILLER_4_66
*276 FILLER_4_69
*277 FILLER_4_74
*278 FILLER_4_85
*279 FILLER_5_107
*280 FILLER_5_48
*281 FILLER_5_55
*282 FILLER_5_57
*283 FILLER_5_60
*284 FILLER_6_101
*285 FILLER_6_104
*286 FILLER_6_16
*287 FILLER_6_19
*288 FILLER_6_22
*289 FILLER_6_25
*290 FILLER_6_29
*291 FILLER_6_32
*292 FILLER_6_6
*293 FILLER_6_9
*294 FILLER_6_98
*295 FILLER_7_102
*296 FILLER_7_23
*297 FILLER_7_3
*298 FILLER_7_46
*299 FILLER_7_57
*300 FILLER_7_6
*301 FILLER_7_99
*302 FILLER_8_23
*303 FILLER_8_26
*304 FILLER_8_29
*305 FILLER_8_32
*306 FILLER_8_82
*307 FILLER_9_106
*308 FILLER_9_12
*309 FILLER_9_24
*310 FILLER_9_27
*311 FILLER_9_30
*312 FILLER_9_33
*313 FILLER_9_41
*314 FILLER_9_55
*315 FILLER_9_6
*316 FILLER_9_64
*317 FILLER_9_76
*318 FILLER_9_88
*319 FILLER_9_9
*320 FILLER_9_91
*321 PHY_EDGE_ROW_0_Left_18
*322 PHY_EDGE_ROW_0_Right_0
*323 PHY_EDGE_ROW_10_Left_28
*324 PHY_EDGE_ROW_10_Right_10
*325 PHY_EDGE_ROW_11_Left_29
*326 PHY_EDGE_ROW_11_Right_11
*327 PHY_EDGE_ROW_12_Left_30
*328 PHY_EDGE_ROW_12_Right_12
*329 PHY_EDGE_ROW_13_Left_31
*330 PHY_EDGE_ROW_13_Right_13
*331 PHY_EDGE_ROW_14_Left_32
*332 PHY_EDGE_ROW_14_Right_14
*333 PHY_EDGE_ROW_15_Left_33
*334 PHY_EDGE_ROW_15_Right_15
*335 PHY_EDGE_ROW_16_Left_34
*336 PHY_EDGE_ROW_16_Right_16
*337 PHY_EDGE_ROW_17_Left_35
*338 PHY_EDGE_ROW_17_Right_17
*339 PHY_EDGE_ROW_1_Left_19
*340 PHY_EDGE_ROW_1_Right_1
*341 PHY_EDGE_ROW_2_Left_20
*342 PHY_EDGE_ROW_2_Right_2
*343 PHY_EDGE_ROW_3_Left_21
*344 PHY_EDGE_ROW_3_Right_3
*345 PHY_EDGE_ROW_4_Left_22
*346 PHY_EDGE_ROW_4_Right_4
*347 PHY_EDGE_ROW_5_Left_23
*348 PHY_EDGE_ROW_5_Right_5
*349 PHY_EDGE_ROW_6_Left_24
*350 PHY_EDGE_ROW_6_Right_6
*351 PHY_EDGE_ROW_7_Left_25
*352 PHY_EDGE_ROW_7_Right_7
*353 PHY_EDGE_ROW_8_Left_26
*354 PHY_EDGE_ROW_8_Right_8
*355 PHY_EDGE_ROW_9_Left_27
*356 PHY_EDGE_ROW_9_Right_9
*357 TAP_TAPCELL_ROW_0_36
*358 TAP_TAPCELL_ROW_0_37
*359 TAP_TAPCELL_ROW_0_38
*360 TAP_TAPCELL_ROW_10_52
*361 TAP_TAPCELL_ROW_10_53
*362 TAP_TAPCELL_ROW_11_54
*363 TAP_TAPCELL_ROW_12_55
*364 TAP_TAPCELL_ROW_12_56
*365 TAP_TAPCELL_ROW_13_57
*366 TAP_TAPCELL_ROW_14_58
*367 TAP_TAPCELL_ROW_14_59
*368 TAP_TAPCELL_ROW_15_60
*369 TAP_TAPCELL_ROW_16_61
*370 TAP_TAPCELL_ROW_16_62
*371 TAP_TAPCELL_ROW_17_63
*372 TAP_TAPCELL_ROW_17_64
*373 TAP_TAPCELL_ROW_17_65
*374 TAP_TAPCELL_ROW_1_39
*375 TAP_TAPCELL_ROW_2_40
*376 TAP_TAPCELL_ROW_2_41
*377 TAP_TAPCELL_ROW_3_42
*378 TAP_TAPCELL_ROW_4_43
*379 TAP_TAPCELL_ROW_4_44
*380 TAP_TAPCELL_ROW_5_45
*381 TAP_TAPCELL_ROW_6_46
*382 TAP_TAPCELL_ROW_6_47
*383 TAP_TAPCELL_ROW_7_48
*384 TAP_TAPCELL_ROW_8_49
*385 TAP_TAPCELL_ROW_8_50
*386 TAP_TAPCELL_ROW_9_51
*387 _072_
*388 _073_
*389 _074_
*390 _075_
*391 _076_
*392 _077_
*393 _078_
*394 _079_
*395 _080_
*396 _081_
*397 _082_
*398 _083_
*399 _084_
*400 _085_
*401 _086_
*402 _087_
*403 _088_
*404 _089_
*405 _090_
*406 _091_
*407 _092_
*408 _093_
*409 _094_
*410 _095_
*411 _096_
*412 _097_
*413 _098_
*414 _099_
*415 _100_
*416 _101_
*417 _102_
*418 _103_
*419 _104_
*420 _105_
*421 _106_
*422 _107_
*423 _108_
*424 _109_
*425 _110_
*426 _111_
*427 _112_
*428 _113_
*429 _114_
*430 _115_
*431 _116_
*432 _117_
*433 _118_
*434 _119_
*435 _120_
*436 _121_
*437 _122_
*438 _123_
*439 _124_
*440 _125_
*441 _126_
*442 _127_
*443 _128_
*444 _129_
*445 _130_
*446 _131_
*447 _132_
*448 _133_
*449 _134_
*450 _135_
*451 _136_
*452 _137_
*453 _138_
*454 _139_
*455 _140_
*456 _141_
*457 _142_
*458 _143_
*459 _144_
*460 _145_
*461 _146_
*462 _147_
*463 _148_
*464 _149_
*465 _150_
*466 _151_
*467 _152_
*468 _153_
*469 _154_
*470 _155_
*471 _156_
*472 _157_
*473 _158_
*474 _159_
*475 _160_
*476 _161_
*477 _162_
*478 _163_
*479 _164_
*480 _165_
*481 _166_
*482 _167_
*483 _168_
*484 _169_
*485 _170_
*486 _171_
*487 _172_
*488 _173_
*489 _174_
*490 _175_
*491 _176_
*492 _177_
*493 _178_
*494 _179_
*495 clkbuf_0_clk
*496 clkbuf_0_clk_regs
*497 clkbuf_1_0__f_clk
*498 clkbuf_2_0__f_clk_regs
*499 clkbuf_2_1__f_clk_regs
*500 clkbuf_2_2__f_clk_regs
*501 clkbuf_2_3__f_clk_regs
*502 clkbuf_regs_0_clk
*503 clkload0
*504 clkload1
*505 clkload2
*506 fanout12
*507 hold1
*508 hold10
*509 hold2
*510 hold3
*511 hold4
*512 hold5
*513 hold6
*514 hold7
*515 hold8
*516 hold9
*517 input1
*518 max_cap30
*519 max_cap31
*520 max_cap32
*521 output10
*522 output11
*523 output12
*524 output13
*525 output14
*526 output15
*527 output16
*528 output17
*529 output18
*530 output19
*531 output2
*532 output20
*533 output21
*534 output22
*535 output23
*536 output24
*537 output25
*538 output26
*539 output27
*540 output28
*541 output29
*542 output3
*543 output4
*544 output5
*545 output6
*546 output7
*547 output8
*548 output9
*549 place45
*550 place46
*551 place47
*552 place48
*553 place49
*554 place50
*555 place51
*556 place52

*PORTS
clk I
clk_comp O
dac_n[0] O
dac_n[1] O
dac_n[2] O
dac_n[3] O
dac_n[4] O
dac_n[5] O
dac_n[6] O
dac_n[7] O
dac_p[0] O
dac_p[1] O
dac_p[2] O
dac_p[3] O
dac_p[4] O
dac_p[5] O
dac_p[6] O
dac_p[7] O
dout[0] O
dout[1] O
dout[2] O
dout[3] O
dout[4] O
dout[5] O
dout[6] O
dout[7] O
eoc O
out_comp_n I
out_comp_p I
phi_sample O
phi_sample_n O
rst_n I

*D_NET *3 0.00922062
*CONN
*P clk I
*I *495:A I *D sky130_fd_sc_hd__clkbuf_16
*I *502:A I *D sky130_fd_sc_hd__clkbuf_16
*CAP
1 clk 0.00146929
2 *495:A 0.000433628
3 *502:A 0
4 *3:19 0.000848348
5 *3:15 0.00165139
6 *3:11 0.00183871
7 *495:A *473:CLK 4.67488e-05
8 *495:A *473:RESET_B 0.000171015
9 *495:A *34:11 5.67058e-05
10 *495:A *122:10 5.50049e-05
11 *3:15 *473:CLK 5.24393e-05
12 *3:15 *91:10 0
13 *3:15 *95:21 0.000262829
14 *3:15 *158:87 0
15 *3:19 *437:B 0.000267292
16 *3:19 *473:CLK 0.00019747
17 *3:19 *65:33 0
18 *3:19 *72:27 0
19 *3:19 *95:21 0.000556214
20 *3:19 *106:10 0.000245709
21 *3:19 *106:39 5.01986e-05
22 *3:19 *113:10 0
23 *3:19 *118:10 0.000141879
24 *3:19 *119:36 0.000782966
25 *3:19 *119:61 2.35393e-05
26 *3:19 *158:74 0
27 *3:19 *160:12 1.02561e-05
28 *3:19 *160:14 0
29 *3:19 *160:16 0
30 *3:19 *170:87 5.89931e-05
*RES
1 clk *3:11 46.2786 
2 *3:11 *3:15 22.54 
3 *3:15 *3:19 37.33 
4 *3:19 *502:A 23 
5 *3:15 *495:A 46.7207 
*END

*D_NET *4 0.00191173
*CONN
*P clk_comp O
*I *531:X O *D sky130_fd_sc_hd__buf_1
*CAP
1 clk_comp 0.000679293
2 *531:X 0.000128081
3 *4:10 0.000807374
4 *4:10 *34:11 0.000296985
*RES
1 *531:X *4:10 49.8425 
2 *4:10 clk_comp 2.56107 
*END

*D_NET *5 0.000864283
*CONN
*P dac_n[0] O
*I *542:X O *D sky130_fd_sc_hd__clkbuf_1
*CAP
1 dac_n[0] 0.000432142
2 *542:X 0.000432142
3 dac_n[0] dac_n[1] 0
4 dac_n[0] dac_p[7] 0
*RES
1 *542:X dac_n[0] 46.6171 
*END

*D_NET *6 0.000864338
*CONN
*P dac_n[1] O
*I *543:X O *D sky130_fd_sc_hd__clkbuf_1
*CAP
1 dac_n[1] 0.000432169
2 *543:X 0.000432169
3 dac_n[1] dac_n[2] 0
4 dac_n[0] dac_n[1] 0
*RES
1 *543:X dac_n[1] 46.6171 
*END

*D_NET *7 0.00108977
*CONN
*P dac_n[2] O
*I *544:X O *D sky130_fd_sc_hd__clkbuf_1
*CAP
1 dac_n[2] 0.000473903
2 *544:X 0.000473903
3 dac_n[2] dac_n[3] 0
4 dac_n[2] *443:A0 0.00014196
5 dac_n[1] dac_n[2] 0
*RES
1 *544:X dac_n[2] 47.57 
*END

*D_NET *8 0.000748032
*CONN
*P dac_n[3] O
*I *545:X O *D sky130_fd_sc_hd__clkbuf_1
*CAP
1 dac_n[3] 0.000374016
2 *545:X 0.000374016
3 dac_n[3] dac_n[4] 0
4 dac_n[2] dac_n[3] 0
*RES
1 *545:X dac_n[3] 45.9957 
*END

*D_NET *9 0.00196296
*CONN
*P dac_n[4] O
*I *546:X O *D sky130_fd_sc_hd__clkbuf_1
*CAP
1 dac_n[4] 0.000498573
2 *546:X 0.000400308
3 *9:12 0.000898881
4 dac_n[4] dac_n[5] 0
5 dac_n[4] *44:10 7.03869e-05
6 dac_n[4] *166:10 0
7 *9:12 *480:SET_B 4.66355e-05
8 *9:12 *546:A 1.55216e-05
9 *9:12 *167:14 3.26562e-05
10 dac_n[3] dac_n[4] 0
*RES
1 *546:X *9:12 44.5043 
2 *9:12 dac_n[4] 10.8129 
*END

*D_NET *10 0.0021983
*CONN
*P dac_n[5] O
*I *547:X O *D sky130_fd_sc_hd__clkbuf_1
*CAP
1 dac_n[5] 0.000694424
2 *547:X 5.80982e-05
3 *10:8 0.000752522
4 dac_n[5] dac_n[6] 0
5 dac_n[5] *469:SET_B 0.0003055
6 dac_n[5] *44:10 0
7 dac_n[5] *87:77 0.000163361
8 dac_n[5] *144:14 3.11878e-05
9 dac_n[5] *144:18 7.34858e-05
10 dac_n[5] *165:44 8.62783e-05
11 dac_n[5] *167:14 2.29192e-05
12 *10:8 *432:A1 1.05235e-05
13 dac_n[4] dac_n[5] 0
*RES
1 *547:X *10:8 38.6214 
2 *10:8 dac_n[5] 16.4471 
*END

*D_NET *11 0.00220429
*CONN
*P dac_n[6] O
*I *548:X O *D sky130_fd_sc_hd__clkbuf_1
*CAP
1 dac_n[6] 0.000657372
2 *548:X 0
3 *11:6 0.000657372
4 dac_n[6] dac_n[7] 0
5 dac_n[6] *469:SET_B 0
6 dac_n[6] *547:A 0
7 dac_n[6] *31:13 0.000889548
8 dac_n[6] *168:10 0
9 dac_n[5] dac_n[6] 0
*RES
1 *548:X *11:6 38 
2 *11:6 dac_n[6] 16.4471 
*END

*D_NET *12 0.00266368
*CONN
*P dac_n[7] O
*I *521:X O *D sky130_fd_sc_hd__clkbuf_1
*CAP
1 dac_n[7] 0.00104294
2 *521:X 0.000288898
3 *12:8 0.00133184
4 dac_n[7] *31:13 0
5 dac_n[6] dac_n[7] 0
*RES
1 *521:X *12:8 42.4329 
2 *12:8 dac_n[7] 22.0814 
*END

*D_NET *13 0.00205735
*CONN
*P dac_p[0] O
*I *522:X O *D sky130_fd_sc_hd__clkbuf_1
*CAP
1 dac_p[0] 0.000504314
2 *522:X 0.000241641
3 *13:8 0.000745954
4 dac_p[0] dout[0] 0.000399462
5 *13:8 dout[2] 1.3652e-05
6 *13:8 *21:10 0.000120042
7 *13:8 *132:26 3.22879e-05
*RES
1 *522:X *13:8 43.3857 
2 *13:8 dac_p[0] 15.0386 
*END

*D_NET *14 0.00138524
*CONN
*P dac_p[1] O
*I *523:X O *D sky130_fd_sc_hd__clkbuf_1
*CAP
1 dac_p[1] 0.000155362
2 *523:X 0.000393163
3 *14:12 0.000548525
4 dac_p[1] dac_p[2] 0
5 dac_p[1] dout[0] 0
6 *14:12 dac_p[2] 0
7 *14:12 dout[0] 0
8 *14:12 *22:8 4.71358e-05
9 *14:12 *61:10 4.5882e-05
10 *14:12 *115:56 0.000141869
11 *14:12 *123:45 5.3304e-05
*RES
1 *523:X *14:12 47.0832 
2 *14:12 dac_p[1] 3.59393 
*END

*D_NET *15 0.00177724
*CONN
*P dac_p[2] O
*I *524:X O *D sky130_fd_sc_hd__clkbuf_1
*CAP
1 dac_p[2] 0.000581189
2 *524:X 5.45426e-05
3 *15:8 0.000635732
4 dac_p[2] dac_p[3] 0
5 dac_p[2] *491:SET_B 9.40162e-05
6 dac_p[2] *81:10 5.31444e-05
7 dac_p[2] *157:73 0.000244526
8 dac_p[2] *157:92 0.000114092
9 dac_p[1] dac_p[2] 0
10 *14:12 dac_p[2] 0
*RES
1 *524:X *15:8 38.6214 
2 *15:8 dac_p[2] 13.63 
*END

*D_NET *16 0.00220083
*CONN
*P dac_p[3] O
*I *525:X O *D sky130_fd_sc_hd__clkbuf_1
*CAP
1 dac_p[3] 0.000728977
2 *525:X 0.000154398
3 *16:8 0.000883375
4 dac_p[3] dac_p[4] 0
5 dac_p[3] *457:S 0
6 dac_p[3] *491:SET_B 0
7 dac_p[3] *60:10 0.000138718
8 dac_p[3] *115:44 0.000122407
9 dac_p[3] *124:14 0
10 dac_p[3] *125:10 0
11 *16:8 *457:S 5.50049e-05
12 *16:8 *124:14 0.000117954
13 dac_p[2] dac_p[3] 0
*RES
1 *525:X *16:8 41.0036 
2 *16:8 dac_p[3] 15.0386 
*END

*D_NET *17 0.000740866
*CONN
*P dac_p[4] O
*I *526:X O *D sky130_fd_sc_hd__clkbuf_1
*CAP
1 dac_p[4] 0.000370433
2 *526:X 0.000370433
3 dac_p[4] dac_p[5] 0
4 dac_p[3] dac_p[4] 0
*RES
1 *526:X dac_p[4] 45.9957 
*END

*D_NET *18 0.000891474
*CONN
*P dac_p[5] O
*I *527:X O *D sky130_fd_sc_hd__clkbuf_1
*CAP
1 dac_p[5] 0.000417919
2 *527:X 0.000417919
3 dac_p[5] dac_p[6] 0
4 dac_p[5] *157:63 4.3198e-05
5 dac_p[5] *157:73 1.24376e-05
6 dac_p[4] dac_p[5] 0
*RES
1 *527:X dac_p[5] 46.6171 
*END

*D_NET *19 0.00117398
*CONN
*P dac_p[6] O
*I *528:X O *D sky130_fd_sc_hd__clkbuf_1
*CAP
1 dac_p[6] 0.000525371
2 *528:X 0.000525371
3 dac_p[6] dac_p[7] 0
4 dac_p[6] *157:59 2.4754e-05
5 dac_p[6] *157:63 9.84851e-05
6 dac_p[5] dac_p[6] 0
*RES
1 *528:X dac_p[6] 48.8129 
*END

*D_NET *20 0.000866198
*CONN
*P dac_p[7] O
*I *529:X O *D sky130_fd_sc_hd__clkbuf_1
*CAP
1 dac_p[7] 0.000431243
2 *529:X 0.000431243
3 dac_p[7] *157:59 3.7122e-06
4 dac_n[0] dac_p[7] 0
5 dac_p[6] dac_p[7] 0
*RES
1 *529:X dac_p[7] 46.6171 
*END

*D_NET *21 0.0023371
*CONN
*P dout[0] O
*I *530:X O *D sky130_fd_sc_hd__clkbuf_1
*CAP
1 dout[0] 0.000580937
2 *530:X 0.000277772
3 *21:10 0.000858709
4 dout[0] *22:8 0
5 *21:10 *132:26 0.00010018
6 dac_p[0] dout[0] 0.000399462
7 dac_p[1] dout[0] 0
8 *13:8 *21:10 0.000120042
9 *14:12 dout[0] 0
*RES
1 *530:X *21:10 43.8829 
2 *21:10 dout[0] 23.0875 
*END

*D_NET *22 0.00133189
*CONN
*P dout[1] O
*I *532:X O *D sky130_fd_sc_hd__clkbuf_1
*CAP
1 dout[1] 0.000252585
2 *532:X 0.000291518
3 *22:8 0.000544103
4 *22:8 *115:56 0.000196549
5 *22:8 *157:73 0
6 *22:8 *157:92 0
7 dout[0] *22:8 0
8 *14:12 *22:8 4.71358e-05
*RES
1 *532:X *22:8 43.9554 
2 *22:8 dout[1] 8.75787 
*END

*D_NET *23 0.000642414
*CONN
*P dout[2] O
*I *533:X O *D sky130_fd_sc_hd__clkbuf_1
*CAP
1 dout[2] 0.000314381
2 *533:X 0.000314381
3 *13:8 dout[2] 1.3652e-05
*RES
1 *533:X dout[2] 49.8062 
*END

*D_NET *24 0.000493553
*CONN
*P dout[3] O
*I *534:X O *D sky130_fd_sc_hd__clkbuf_1
*CAP
1 dout[3] 0.000246776
2 *534:X 0.000246776
*RES
1 *534:X dout[3] 47.0789 
*END

*D_NET *25 0.000637222
*CONN
*P dout[4] O
*I *535:X O *D sky130_fd_sc_hd__clkbuf_1
*CAP
1 dout[4] 0.000318611
2 *535:X 0.000318611
3 dout[4] dout[5] 0
*RES
1 *535:X dout[4] 49.8062 
*END

*D_NET *26 0.00078797
*CONN
*P dout[5] O
*I *536:X O *D sky130_fd_sc_hd__clkbuf_1
*CAP
1 dout[5] 0.000126491
2 *536:X 0.000267494
3 *26:10 0.000393985
4 dout[4] dout[5] 0
*RES
1 *536:X *26:10 42.0289 
2 *26:10 dout[5] 8.4816 
*END

*D_NET *27 0.000640097
*CONN
*P dout[6] O
*I *537:X O *D sky130_fd_sc_hd__clkbuf_1
*CAP
1 dout[6] 0.000304732
2 *537:X 0.000304732
3 dout[6] *29:12 3.06338e-05
*RES
1 *537:X dout[6] 49.8062 
*END

*D_NET *28 0.00112439
*CONN
*P dout[7] O
*I *538:X O *D sky130_fd_sc_hd__clkbuf_1
*CAP
1 dout[7] 0.000214313
2 *538:X 0.000203852
3 *28:10 0.000418165
4 *28:10 *29:12 0.00028806
5 *28:10 *143:21 0
*RES
1 *538:X *28:10 42.4639 
2 *28:10 dout[7] 8.672 
*END

*D_NET *29 0.00247405
*CONN
*P eoc O
*I *539:X O *D sky130_fd_sc_hd__clkbuf_1
*CAP
1 eoc 0.000480201
2 *539:X 0.000588805
3 *29:12 0.00106901
4 *29:12 *537:A 1.73399e-05
5 *29:12 *143:21 0
6 dout[6] *29:12 3.06338e-05
7 *28:10 *29:12 0.00028806
*RES
1 *539:X *29:12 49.7968 
2 *29:12 eoc 15.2799 
*END

*D_NET *31 0.00314345
*CONN
*P out_comp_p I
*I *517:A I *D sky130_fd_sc_hd__clkbuf_1
*CAP
1 out_comp_p 0.00110577
2 *517:A 0
3 *31:13 0.00110577
4 *31:13 *547:A 0
5 *31:13 *144:12 0
6 *31:13 *144:14 0
7 *31:13 *169:10 4.23714e-05
8 dac_n[6] *31:13 0.000889548
9 dac_n[7] *31:13 0
*RES
1 out_comp_p *31:13 45.1247 
2 *31:13 *517:A 23 
*END

*D_NET *32 0.0015101
*CONN
*P phi_sample O
*I *540:X O *D sky130_fd_sc_hd__clkbuf_1
*CAP
1 phi_sample 0.000743819
2 *540:X 0.000743819
3 phi_sample *56:10 2.24608e-05
*RES
1 *540:X phi_sample 48.1952 
*END

*D_NET *33 0.00305327
*CONN
*P phi_sample_n O
*I *541:X O *D sky130_fd_sc_hd__clkbuf_1
*CAP
1 phi_sample_n 0.000905852
2 *541:X 4.91511e-05
3 *33:8 0.000955003
4 phi_sample_n *140:14 0.000385735
5 phi_sample_n *140:21 0.000443548
6 phi_sample_n *140:32 0.000158008
7 phi_sample_n *142:12 4.99238e-05
8 phi_sample_n *173:10 0.000106054
*RES
1 *541:X *33:8 38.6214 
2 *33:8 phi_sample_n 26.6861 
*END

*D_NET *34 0.00182917
*CONN
*P rst_n I
*I *506:A I *D sky130_fd_sc_hd__clkbuf_1
*CAP
1 rst_n 0.00073774
2 *506:A 0
3 *34:11 0.00073774
4 *34:11 *35:10 0
5 *34:11 *149:8 0
6 *34:11 *172:8 0
7 *495:A *34:11 5.67058e-05
8 *4:10 *34:11 0.000296985
*RES
1 rst_n *34:11 31.4057 
2 *34:11 *506:A 23 
*END

*D_NET *35 0.000875437
*CONN
*I *512:A I *D sky130_fd_sc_hd__dlygate4sd3_1
*I *394:Y O *D sky130_fd_sc_hd__a21oi_1
*CAP
1 *512:A 0
2 *394:Y 0.000301527
3 *35:10 0.000301527
4 *35:10 *37:10 0
5 *35:10 *172:12 8.6949e-05
6 *35:10 *172:14 0.000185434
7 *34:11 *35:10 0
*RES
1 *394:Y *35:10 42.9093 
2 *35:10 *512:A 38 
*END

*D_NET *36 0.000379722
*CONN
*I *473:D I *D sky130_fd_sc_hd__dfrtp_4
*I *399:X O *D sky130_fd_sc_hd__and3_1
*CAP
1 *473:D 4.82597e-05
2 *399:X 4.96283e-05
3 *36:8 9.7888e-05
4 *473:D *473:CLK 6.17437e-06
5 *473:D *473:RESET_B 8.06804e-06
6 *36:8 *473:CLK 0.000114083
7 *36:8 *91:10 5.56203e-05
*RES
1 *399:X *36:8 39.5536 
2 *36:8 *473:D 38.6214 
*END

*D_NET *37 0.00118334
*CONN
*I *474:D I *D sky130_fd_sc_hd__dfrtp_4
*I *404:X O *D sky130_fd_sc_hd__a21o_1
*CAP
1 *474:D 0
2 *404:X 0.000341236
3 *37:10 0.000341236
4 *37:10 *95:21 0.000320661
5 *37:10 *172:16 0.000180212
6 *35:10 *37:10 0
*RES
1 *404:X *37:10 44.4214 
2 *37:10 *474:D 38 
*END

*D_NET *38 0.000661969
*CONN
*I *475:D I *D sky130_fd_sc_hd__dfrtp_4
*I *406:X O *D sky130_fd_sc_hd__a21o_1
*CAP
1 *475:D 0.000182548
2 *406:X 4.16351e-05
3 *38:8 0.000224183
4 *475:D *475:CLK 7.17897e-05
5 *475:D *69:8 1.24298e-05
6 *38:8 *79:10 4.08641e-05
7 *38:8 *100:50 8.85189e-05
*RES
1 *406:X *38:8 39.2014 
2 *38:8 *475:D 40.4287 
*END

*D_NET *39 0.0161728
*CONN
*I *479:D I *D sky130_fd_sc_hd__dfrtp_1
*I *411:B I *D sky130_fd_sc_hd__and2_4
*I *412:A_N I *D sky130_fd_sc_hd__and2b_1
*I *463:A_N I *D sky130_fd_sc_hd__and2b_1
*I *452:B I *D sky130_fd_sc_hd__nor2_1
*I *393:X O *D sky130_fd_sc_hd__and4bb_4
*CAP
1 *479:D 0.0010763
2 *411:B 0
3 *412:A_N 0
4 *463:A_N 0.000240701
5 *452:B 0.000123794
6 *393:X 0
7 *39:76 0.0014158
8 *39:60 0.000225312
9 *39:43 0.00122069
10 *39:35 0.00115725
11 *39:14 0.00181311
12 *39:4 0.00162624
13 *452:B *431:B 0
14 *452:B *65:33 2.99716e-05
15 *452:B *69:27 0.000223704
16 *452:B *116:65 9.03784e-05
17 *463:A_N *464:C 3.7122e-06
18 *479:D *396:A1 0.00014196
19 *479:D *479:CLK 9.90162e-05
20 *479:D *479:RESET_B 0.000230604
21 *479:D *518:A 0.000141954
22 *479:D *172:16 1.59094e-05
23 *39:14 *393:A_N 5.3304e-05
24 *39:14 *393:B_N 5.3304e-05
25 *39:14 *393:C 6.99589e-05
26 *39:14 *453:B1 1.59586e-05
27 *39:14 *55:8 5.90941e-05
28 *39:14 *65:20 0.000114092
29 *39:14 *65:33 9.82281e-05
30 *39:14 *72:14 9.28842e-05
31 *39:14 *88:10 0.000238578
32 *39:14 *93:19 0
33 *39:14 *100:19 0.000120332
34 *39:14 *116:65 0.000177719
35 *39:14 *129:10 0.000161121
36 *39:14 *129:14 0.000916391
37 *39:14 *159:10 0
38 *39:14 *159:12 0
39 *39:14 *159:14 0
40 *39:14 *159:18 9.64469e-05
41 *39:14 *170:52 1.69668e-05
42 *39:14 *170:61 0.00021356
43 *39:14 *171:16 1.14452e-05
44 *39:14 *171:22 0.000191157
45 *39:14 *171:26 6.02277e-06
46 *39:14 *171:30 2.41047e-05
47 *39:14 *172:26 1.37246e-05
48 *39:14 *173:43 4.48671e-05
49 *39:35 *411:A 5.79559e-05
50 *39:35 *431:A 9.91798e-05
51 *39:35 *454:A2 0.000113086
52 *39:35 *454:B1 0.000140259
53 *39:35 *58:10 4.19395e-05
54 *39:35 *69:27 1.48605e-05
55 *39:35 *78:8 0.00018282
56 *39:35 *80:10 0.0002263
57 *39:35 *102:30 0.000620729
58 *39:43 *411:A 4.65192e-05
59 *39:43 *413:A1 0.000152468
60 *39:43 *464:C 8.60346e-05
61 *39:43 *64:10 0.000141954
62 *39:43 *102:6 0.000153715
63 *39:60 *463:B 0.000120405
64 *39:60 *465:RESET_B 6.35028e-05
65 *39:60 *40:8 0.000140875
66 *39:60 *101:66 1.26897e-05
67 *39:60 *131:14 6.75909e-05
68 *39:60 *132:26 0.000162268
69 *39:76 *396:A1 0
70 *39:76 *404:A1 0.000124398
71 *39:76 *90:18 0.000125396
72 *39:76 *158:87 0
73 *39:76 *172:20 0.000577418
74 *39:76 *172:26 3.47781e-05
*RES
1 *393:X *39:4 23 
2 *39:4 *39:14 46.3821 
3 *39:14 *452:B 42.2257 
4 *39:14 *39:35 29.4793 
5 *39:35 *39:43 13.195 
6 *39:43 *463:A_N 26.0243 
7 *39:43 *39:60 36.7529 
8 *39:60 *412:A_N 23 
9 *39:35 *411:B 23 
10 *39:4 *39:76 39.3007 
11 *39:76 *479:D 43.155 
*END

*D_NET *40 0.000657258
*CONN
*I *465:D I *D sky130_fd_sc_hd__dfrtp_1
*I *413:X O *D sky130_fd_sc_hd__o21a_1
*CAP
1 *465:D 0.000121232
2 *413:X 5.06867e-05
3 *40:8 0.000171919
4 *465:D *465:CLK 5.90312e-05
5 *40:8 *101:66 2.56281e-05
6 *40:8 *131:14 8.78864e-05
7 *39:60 *40:8 0.000140875
*RES
1 *413:X *40:8 39.9057 
2 *40:8 *465:D 40.0507 
*END

*D_NET *41 0.00128606
*CONN
*I *466:D I *D sky130_fd_sc_hd__dfrtp_1
*I *416:X O *D sky130_fd_sc_hd__or2_1
*CAP
1 *466:D 0
2 *416:X 0.000257774
3 *41:8 0.000257774
4 *41:8 *70:23 0.000564
5 *41:8 *104:10 2.16243e-05
6 *41:8 *111:8 0.000138727
7 *41:8 *161:56 4.61596e-05
*RES
1 *416:X *41:8 45.54 
2 *41:8 *466:D 38 
*END

*D_NET *42 0.00186277
*CONN
*I *467:D I *D sky130_fd_sc_hd__dfrtp_1
*I *419:X O *D sky130_fd_sc_hd__o21a_1
*CAP
1 *467:D 0.000300769
2 *419:X 0.000403631
3 *42:10 0.000704399
4 *42:10 *419:A2 2.92911e-06
5 *42:10 *493:SET_B 0.000246239
6 *42:10 *63:10 2.70366e-05
7 *42:10 *101:79 5.68958e-05
8 *42:10 *106:39 3.7122e-06
9 *42:10 *132:10 6.23248e-06
10 *42:10 *163:72 0.000110922
*RES
1 *419:X *42:10 45.25 
2 *42:10 *467:D 43.3857 
*END

*D_NET *43 0.000627486
*CONN
*I *468:D I *D sky130_fd_sc_hd__dfrtp_1
*I *423:X O *D sky130_fd_sc_hd__and2_1
*CAP
1 *468:D 0
2 *423:X 0.00028023
3 *43:10 0.00028023
4 *43:10 *441:A0 3.14377e-05
5 *43:10 *108:16 3.55887e-05
6 *43:10 *110:10 0
*RES
1 *423:X *43:10 43.2614 
2 *43:10 *468:D 38 
*END

*D_NET *44 0.0015739
*CONN
*I *469:D I *D sky130_fd_sc_hd__dfstp_1
*I *427:X O *D sky130_fd_sc_hd__or2_1
*CAP
1 *469:D 3.77894e-05
2 *427:X 0.000564605
3 *44:10 0.000602394
4 *44:10 *432:S 2.02872e-05
5 *44:10 *439:S 0.000136486
6 *44:10 *469:CLK 0
7 *44:10 *65:75 0
8 *44:10 *67:8 0
9 *44:10 *108:51 0.000141954
10 *44:10 *116:24 0
11 *44:10 *167:14 0
12 dac_n[4] *44:10 7.03869e-05
13 dac_n[5] *44:10 0
*RES
1 *427:X *44:10 47.5907 
2 *44:10 *469:D 38.6214 
*END

*D_NET *45 0.000795574
*CONN
*I *470:D I *D sky130_fd_sc_hd__dfrtp_1
*I *429:X O *D sky130_fd_sc_hd__and2_1
*CAP
1 *470:D 0
2 *429:X 0.000256662
3 *45:10 0.000256662
4 *45:10 *428:A0 0.000237027
5 *45:10 *428:A1 7.61229e-06
6 *45:10 *101:16 7.64059e-06
7 *45:10 *145:78 2.99696e-05
*RES
1 *429:X *45:10 42.5571 
2 *45:10 *470:D 38 
*END

*D_NET *46 0.00088812
*CONN
*I *471:D I *D sky130_fd_sc_hd__dfstp_1
*I *433:X O *D sky130_fd_sc_hd__or2_1
*CAP
1 *471:D 0.000179806
2 *433:X 0.000213955
3 *46:8 0.000393761
4 *46:8 *71:10 0
5 *46:8 *165:44 0.000100598
*RES
1 *433:X *46:8 42.7229 
2 *46:8 *471:D 41.0036 
*END

*D_NET *47 0.00124618
*CONN
*I *476:D I *D sky130_fd_sc_hd__dfrtp_4
*I *434:X O *D sky130_fd_sc_hd__o22a_1
*CAP
1 *476:D 0.000173453
2 *434:X 0.000188758
3 *47:8 0.000362211
4 *476:D *94:58 0.000137613
5 *476:D *99:16 2.93747e-05
6 *47:8 *49:8 0
7 *47:8 *94:58 0.000354769
8 *47:8 *99:16 0
*RES
1 *434:X *47:8 42.7229 
2 *47:8 *476:D 41.9564 
*END

*D_NET *48 0.00095999
*CONN
*I *477:D I *D sky130_fd_sc_hd__dfstp_1
*I *436:X O *D sky130_fd_sc_hd__o22a_1
*CAP
1 *477:D 0
2 *436:X 0.00031851
3 *48:10 0.00031851
4 *48:10 *441:S 0.00032297
5 *48:10 *467:RESET_B 0
*RES
1 *436:X *48:10 43.3857 
2 *48:10 *477:D 38 
*END

*D_NET *49 0.000746271
*CONN
*I *478:D I *D sky130_fd_sc_hd__dfstp_1
*I *438:X O *D sky130_fd_sc_hd__o21ba_1
*CAP
1 *478:D 3.09382e-05
2 *438:X 0.000258151
3 *49:8 0.000289089
4 *478:D *158:12 2.93845e-05
5 *49:8 *478:CLK 0
6 *49:8 *94:58 0
7 *49:8 *99:16 0.000138708
8 *49:8 *118:41 0
9 *49:8 *154:10 0
10 *47:8 *49:8 0
*RES
1 *438:X *49:8 42.7229 
2 *49:8 *478:D 38.6214 
*END

*D_NET *50 0.000925073
*CONN
*I *480:D I *D sky130_fd_sc_hd__dfstp_1
*I *440:X O *D sky130_fd_sc_hd__or2_1
*CAP
1 *480:D 0.000168735
2 *440:X 5.23918e-05
3 *50:8 0.000221127
4 *480:D *482:SET_B 0.000254486
5 *480:D *166:10 6.48951e-06
6 *50:8 *544:A 0.000110922
7 *50:8 *152:26 0.000110922
*RES
1 *440:X *50:8 39.5536 
2 *50:8 *480:D 42.1221 
*END

*D_NET *51 0.000562023
*CONN
*I *481:D I *D sky130_fd_sc_hd__dfrtp_1
*I *442:X O *D sky130_fd_sc_hd__and2_1
*CAP
1 *481:D 0.000170655
2 *442:X 8.61681e-05
3 *51:8 0.000256823
4 *51:8 *101:55 4.83778e-05
*RES
1 *442:X *51:8 39.9057 
2 *51:8 *481:D 41.0036 
*END

*D_NET *52 0.00033767
*CONN
*I *482:D I *D sky130_fd_sc_hd__dfstp_1
*I *444:X O *D sky130_fd_sc_hd__or2_1
*CAP
1 *482:D 2.63249e-05
2 *444:X 9.31502e-05
3 *52:8 0.000119475
4 *482:D *87:47 2.93747e-05
5 *52:8 *76:10 0
6 *52:8 *141:14 6.93449e-05
*RES
1 *444:X *52:8 39.9057 
2 *52:8 *482:D 38.6214 
*END

*D_NET *53 0.00110854
*CONN
*I *483:D I *D sky130_fd_sc_hd__dfrtp_1
*I *446:X O *D sky130_fd_sc_hd__or2_1
*CAP
1 *483:D 0.000153606
2 *446:X 0.000268642
3 *53:8 0.000422248
4 *483:D *447:B1 7.87147e-05
5 *483:D *96:26 7.806e-05
6 *483:D *137:10 5.41288e-05
7 *53:8 *137:10 5.31444e-05
*RES
1 *446:X *53:8 42.7229 
2 *53:8 *483:D 41.9564 
*END

*D_NET *54 0.000927667
*CONN
*I *484:D I *D sky130_fd_sc_hd__dfrtp_1
*I *447:X O *D sky130_fd_sc_hd__a31o_1
*CAP
1 *484:D 0
2 *447:X 0.000341529
3 *54:10 0.000341529
4 *54:10 *504:A 2.93747e-05
5 *54:10 *117:12 4.66473e-05
6 *54:10 *117:14 5.41385e-05
7 *54:10 *117:85 3.04021e-05
8 *54:10 *146:10 8.4047e-05
*RES
1 *447:X *54:10 43.945 
2 *54:10 *484:D 38 
*END

*D_NET *55 0.000985703
*CONN
*I *485:D I *D sky130_fd_sc_hd__dfstp_1
*I *449:Y O *D sky130_fd_sc_hd__o21ai_1
*CAP
1 *485:D 0.000188195
2 *449:Y 7.95671e-05
3 *55:8 0.000267762
4 *485:D *485:CLK 8.42292e-05
5 *485:D *113:58 5.66866e-05
6 *485:D *116:73 5.3304e-05
7 *55:8 *453:B1 0.000162263
8 *55:8 *116:65 3.46013e-05
9 *39:14 *55:8 5.90941e-05
*RES
1 *449:Y *55:8 40.2579 
2 *55:8 *485:D 41.48 
*END

*D_NET *56 0.00157324
*CONN
*I *486:D I *D sky130_fd_sc_hd__dfstp_1
*I *451:Y O *D sky130_fd_sc_hd__o21ai_1
*CAP
1 *486:D 0
2 *451:Y 0.000507092
3 *56:10 0.000507092
4 *56:10 *475:CLK 6.46602e-05
5 *56:10 *486:SET_B 0.000113398
6 *56:10 *99:18 0
7 *56:10 *116:99 4.41821e-06
8 *56:10 *165:51 0
9 *56:10 *173:20 0.000354122
10 phi_sample *56:10 2.24608e-05
*RES
1 *451:Y *56:10 47.0314 
2 *56:10 *486:D 38 
*END

*D_NET *57 0.00142163
*CONN
*I *487:D I *D sky130_fd_sc_hd__dfstp_1
*I *453:Y O *D sky130_fd_sc_hd__o21ai_1
*CAP
1 *487:D 7.8141e-05
2 *453:Y 0.000374592
3 *57:8 0.000452733
4 *487:D *87:20 6.50913e-05
5 *487:D *165:26 9.4713e-05
6 *57:8 *431:A 0.000115152
7 *57:8 *454:A1 2.01531e-05
8 *57:8 *70:23 1.02561e-05
9 *57:8 *80:10 8.57577e-05
10 *57:8 *129:14 0
11 *57:8 *157:12 0
12 *57:8 *157:16 0
13 *57:8 *157:59 0.000125043
*RES
1 *453:Y *57:8 45.54 
2 *57:8 *487:D 40.0507 
*END

*D_NET *58 0.000564852
*CONN
*I *488:D I *D sky130_fd_sc_hd__dfstp_1
*I *454:X O *D sky130_fd_sc_hd__a211o_1
*CAP
1 *488:D 0
2 *454:X 0.000261456
3 *58:10 0.000261456
4 *58:10 *488:SET_B 0
5 *58:10 *157:12 0
6 *39:35 *58:10 4.19395e-05
*RES
1 *454:X *58:10 41.9564 
2 *58:10 *488:D 38 
*END

*D_NET *59 0.000515103
*CONN
*I *489:D I *D sky130_fd_sc_hd__dfstp_1
*I *455:X O *D sky130_fd_sc_hd__a211o_1
*CAP
1 *489:D 0
2 *455:X 0.000163971
3 *59:10 0.000163971
4 *59:10 *456:B1 2.93747e-05
5 *59:10 *527:A 1.59071e-05
6 *59:10 *108:65 0
7 *59:10 *109:8 0.000141879
*RES
1 *455:X *59:10 41.0036 
2 *59:10 *489:D 38 
*END

*D_NET *60 0.00128534
*CONN
*I *490:D I *D sky130_fd_sc_hd__dfstp_1
*I *456:X O *D sky130_fd_sc_hd__a211o_1
*CAP
1 *490:D 0
2 *456:X 0.000432932
3 *60:10 0.000432932
4 *60:10 *491:SET_B 0
5 *60:10 *526:A 0.00010655
6 *60:10 *125:10 3.32734e-05
7 *60:10 *157:73 0.000140938
8 dac_p[3] *60:10 0.000138718
*RES