*SPEF "ieee 1481-1999"
*DESIGN "sar_controller"
*DATE "12:58:58 Friday May 15, 2026"
*VENDOR "The OpenROAD Project"
*PROGRAM "OpenROAD"
*VERSION "v2.0-23079-g93b6f40ec"
*DESIGN_FLOW "NAME_SCOPE LOCAL" "PIN_CAP NONE"
*DIVIDER /
*DELIMITER :
*BUS_DELIMITER []
*T_UNIT 1 NS
*C_UNIT 1 PF
*R_UNIT 1 OHM
*L_UNIT 1 HENRY

*NAME_MAP
*3 clk
*4 clk_comp
*5 dac_n[0]
*6 dac_n[1]
*7 dac_n[2]
*8 dac_n[3]
*9 dac_n[4]
*10 dac_n[5]
*11 dac_n[6]
*12 dac_n[7]
*13 dac_p[0]
*14 dac_p[1]
*15 dac_p[2]
*16 dac_p[3]
*17 dac_p[4]
*18 dac_p[5]
*19 dac_p[6]
*20 dac_p[7]
*21 dout[0]
*22 dout[1]
*23 dout[2]
*24 dout[3]
*25 dout[4]
*26 dout[5]
*27 dout[6]
*28 dout[7]
*29 eoc
*30 out_comp_n
*31 out_comp_p
*32 phi_sample
*33 phi_sample_n
*34 rst_n
*35 \:61\.Y\[0\]
*36 \:61\.Y\[1\]
*37 \:61\.Y\[2\]
*38 \:61\.Y\[3\]
*39 _000_
*40 _001_
*41 _002_
*42 _003_
*43 _004_
*44 _005_
*45 _006_
*46 _007_
*47 _008_
*48 _009_
*49 _010_
*50 _011_
*51 _012_
*52 _013_
*53 _014_
*54 _015_
*55 _016_
*56 _017_
*57 _018_
*58 _019_
*59 _020_
*60 _021_
*61 _022_
*62 _023_
*63 _024_
*64 _025_
*65 _026_
*66 _027_
*67 _028_
*68 _029_
*69 _030_
*70 _031_
*71 _032_
*72 _033_
*73 _034_
*74 _035_
*75 _036_
*76 _037_
*77 _038_
*78 _039_
*79 _040_
*80 _041_
*81 _042_
*82 _043_
*83 _044_
*84 _045_
*85 _046_
*86 _047_
*87 _048_
*88 _049_
*89 _050_
*90 _051_
*91 _052_
*92 _053_
*93 _054_
*94 _055_
*95 _056_
*96 _057_
*97 _058_
*98 _059_
*99 _060_
*100 _061_
*101 _062_
*102 _063_
*103 _064_
*104 _065_
*105 _066_
*106 _067_
*107 _068_
*108 _069_
*109 _070_
*110 _071_
*111 clk_regs
*112 clknet_0_clk
*113 clknet_0_clk_regs
*114 clknet_1_0__leaf_clk
*115 clknet_2_0__leaf_clk_regs
*116 clknet_2_1__leaf_clk_regs
*117 clknet_2_2__leaf_clk_regs
*118 clknet_2_3__leaf_clk_regs
*119 net1
*120 net10
*121 net11
*122 net12
*123 net13
*124 net14
*125 net15
*126 net16
*127 net17
*128 net18
*129 net19
*130 net2
*131 net20
*132 net21
*133 net22
*134 net23
*135 net24
*136 net25
*137 net26
*138 net27
*139 net28
*140 net29
*141 net3
*142 net30
*143 net31
*144 net32
*145 net33
*146 net34
*147 net35
*148 net36
*149 net37
*150 net38
*151 net39
*152 net4
*153 net40
*154 net41
*155 net42
*156 net43
*157 net44
*158 net45
*159 net46
*160 net47
*161 net48
*162 net49
*163 net5
*164 net50
*165 net6
*166 net7
*167 net8
*168 net9
*169 state\[0\]
*170 state\[1\]
*171 state\[2\]
*172 state\[3\]
*173 FILLER_0_100
*174 FILLER_0_104
*175 FILLER_0_107
*176 FILLER_0_113
*177 FILLER_0_116
*178 FILLER_0_119
*179 FILLER_0_124
*180 FILLER_0_127
*181 FILLER_0_130
*182 FILLER_0_134
*183 FILLER_0_137
*184 FILLER_0_14
*185 FILLER_0_17
*186 FILLER_0_20
*187 FILLER_0_24
*188 FILLER_0_27
*189 FILLER_0_29
*190 FILLER_0_34
*191 FILLER_0_37
*192 FILLER_0_40
*193 FILLER_0_44
*194 FILLER_0_47
*195 FILLER_0_50
*196 FILLER_0_54
*197 FILLER_0_57
*198 FILLER_0_60
*199 FILLER_0_64
*200 FILLER_0_67
*201 FILLER_0_70
*202 FILLER_0_74
*203 FILLER_0_77
*204 FILLER_0_80
*205 FILLER_0_85
*206 FILLER_0_88
*207 FILLER_0_9
*208 FILLER_0_94
*209 FILLER_0_97
*210 FILLER_10_110
*211 FILLER_10_113
*212 FILLER_10_116
*213 FILLER_10_119
*214 FILLER_10_12
*215 FILLER_10_122
*216 FILLER_10_125
*217 FILLER_10_128
*218 FILLER_10_131
*219 FILLER_10_134
*220 FILLER_10_137
*221 FILLER_10_141
*222 FILLER_10_144
*223 FILLER_10_27
*224 FILLER_10_3
*225 FILLER_10_32
*226 FILLER_10_35
*227 FILLER_10_56
*228 FILLER_10_6
*229 FILLER_10_63
*230 FILLER_10_66
*231 FILLER_10_69
*232 FILLER_10_72
*233 FILLER_10_76
*234 FILLER_10_79
*235 FILLER_10_82
*236 FILLER_10_85
*237 FILLER_10_88
*238 FILLER_10_9
*239 FILLER_10_91
*240 FILLER_10_94
*241 FILLER_11_108
*242 FILLER_11_111
*243 FILLER_11_113
*244 FILLER_11_116
*245 FILLER_11_122
*246 FILLER_11_125
*247 FILLER_11_128
*248 FILLER_11_131
*249 FILLER_11_134
*250 FILLER_11_137
*251 FILLER_11_140
*252 FILLER_11_143
*253 FILLER_11_146
*254 FILLER_11_26
*255 FILLER_11_3
*256 FILLER_11_32
*257 FILLER_11_35
*258 FILLER_11_38
*259 FILLER_11_41
*260 FILLER_11_44
*261 FILLER_11_47
*262 FILLER_11_55
*263 FILLER_11_57
*264 FILLER_11_60
*265 FILLER_11_63
*266 FILLER_11_66
*267 FILLER_11_69
*268 FILLER_11_92
*269 FILLER_11_95
*270 FILLER_12_105
*271 FILLER_12_108
*272 FILLER_12_111
*273 FILLER_12_114
*274 FILLER_12_141
*275 FILLER_12_26
*276 FILLER_12_29
*277 FILLER_12_3
*278 FILLER_12_32
*279 FILLER_12_35
*280 FILLER_12_38
*281 FILLER_12_41
*282 FILLER_12_44
*283 FILLER_12_47
*284 FILLER_12_50
*285 FILLER_12_53
*286 FILLER_12_56
*287 FILLER_12_59
*288 FILLER_12_62
*289 FILLER_12_65
*290 FILLER_12_68
*291 FILLER_12_90
*292 FILLER_12_93
*293 FILLER_12_96
*294 FILLER_12_99
*295 FILLER_13_111
*296 FILLER_13_113
*297 FILLER_13_12
*298 FILLER_13_145
*299 FILLER_13_19
*300 FILLER_13_29
*301 FILLER_13_32
*302 FILLER_13_35
*303 FILLER_13_38
*304 FILLER_13_41
*305 FILLER_13_44
*306 FILLER_13_47
*307 FILLER_13_50
*308 FILLER_13_53
*309 FILLER_13_57
*310 FILLER_13_6
*311 FILLER_13_60
*312 FILLER_13_9
*313 FILLER_13_92
*314 FILLER_14_12
*315 FILLER_14_120
*316 FILLER_14_129
*317 FILLER_14_138
*318 FILLER_14_141
*319 FILLER_14_144
*320 FILLER_14_15
*321 FILLER_14_18
*322 FILLER_14_24
*323 FILLER_14_27
*324 FILLER_14_3
*325 FILLER_14_38
*326 FILLER_14_41
*327 FILLER_14_47
*328 FILLER_14_6
*329 FILLER_14_9
*330 FILLER_14_98
*331 FILLER_15_113
*332 FILLER_15_116
*333 FILLER_15_119
*334 FILLER_15_12
*335 FILLER_15_128
*336 FILLER_15_131
*337 FILLER_15_134
*338 FILLER_15_137
*339 FILLER_15_140
*340 FILLER_15_143
*341 FILLER_15_146
*342 FILLER_15_3
*343 FILLER_15_33
*344 FILLER_15_36
*345 FILLER_15_39
*346 FILLER_15_42
*347 FILLER_15_57
*348 FILLER_15_6
*349 FILLER_15_65
*350 FILLER_15_9
*351 FILLER_16_12
*352 FILLER_16_131
*353 FILLER_16_134
*354 FILLER_16_137
*355 FILLER_16_141
*356 FILLER_16_144
*357 FILLER_16_15
*358 FILLER_16_18
*359 FILLER_16_21
*360 FILLER_16_24
*361 FILLER_16_27
*362 FILLER_16_29
*363 FILLER_16_32
*364 FILLER_16_35
*365 FILLER_16_38
*366 FILLER_16_41
*367 FILLER_16_6
*368 FILLER_16_64
*369 FILLER_16_67
*370 FILLER_16_70
*371 FILLER_16_9
*372 FILLER_17_102
*373 FILLER_17_105
*374 FILLER_17_108
*375 FILLER_17_111
*376 FILLER_17_113
*377 FILLER_17_116
*378 FILLER_17_119
*379 FILLER_17_12
*380 FILLER_17_122
*381 FILLER_17_125
*382 FILLER_17_128
*383 FILLER_17_131
*384 FILLER_17_134
*385 FILLER_17_137
*386 FILLER_17_140
*387 FILLER_17_143
*388 FILLER_17_146
*389 FILLER_17_15
*390 FILLER_17_18
*391 FILLER_17_21
*392 FILLER_17_24
*393 FILLER_17_27
*394 FILLER_17_3
*395 FILLER_17_30
*396 FILLER_17_33
*397 FILLER_17_6
*398 FILLER_17_65
*399 FILLER_17_68
*400 FILLER_17_71
*401 FILLER_17_74
*402 FILLER_17_9
*403 FILLER_17_90
*404 FILLER_17_93
*405 FILLER_17_96
*406 FILLER_17_99
*407 FILLER_18_100
*408 FILLER_18_103
*409 FILLER_18_106
*410 FILLER_18_111
*411 FILLER_18_114
*412 FILLER_18_117
*413 FILLER_18_12
*414 FILLER_18_120
*415 FILLER_18_123
*416 FILLER_18_126
*417 FILLER_18_129
*418 FILLER_18_132
*419 FILLER_18_135
*420 FILLER_18_138
*421 FILLER_18_141
*422 FILLER_18_144
*423 FILLER_18_15
*424 FILLER_18_18
*425 FILLER_18_21
*426 FILLER_18_24
*427 FILLER_18_27
*428 FILLER_18_29
*429 FILLER_18_3
*430 FILLER_18_32
*431 FILLER_18_35
*432 FILLER_18_38
*433 FILLER_18_41
*434 FILLER_18_6
*435 FILLER_18_62
*436 FILLER_18_65
*437 FILLER_18_68
*438 FILLER_18_71
*439 FILLER_18_74
*440 FILLER_18_77
*441 FILLER_18_85
*442 FILLER_18_88
*443 FILLER_18_9
*444 FILLER_18_91
*445 FILLER_18_94
*446 FILLER_18_97
*447 FILLER_19_102
*448 FILLER_19_105
*449 FILLER_19_108
*450 FILLER_19_111
*451 FILLER_19_113
*452 FILLER_19_116
*453 FILLER_19_119
*454 FILLER_19_12
*455 FILLER_19_122
*456 FILLER_19_125
*457 FILLER_19_128
*458 FILLER_19_131
*459 FILLER_19_137
*460 FILLER_19_140
*461 FILLER_19_143
*462 FILLER_19_15
*463 FILLER_19_18
*464 FILLER_19_21
*465 FILLER_19_24
*466 FILLER_19_27
*467 FILLER_19_3
*468 FILLER_19_30
*469 FILLER_19_33
*470 FILLER_19_36
*471 FILLER_19_39
*472 FILLER_19_42
*473 FILLER_19_53
*474 FILLER_19_57
*475 FILLER_19_6
*476 FILLER_19_60
*477 FILLER_19_63
*478 FILLER_19_66
*479 FILLER_19_69
*480 FILLER_19_72
*481 FILLER_19_75
*482 FILLER_19_78
*483 FILLER_19_81
*484 FILLER_19_84
*485 FILLER_19_87
*486 FILLER_19_9
*487 FILLER_19_90
*488 FILLER_19_93
*489 FILLER_19_96
*490 FILLER_19_99
*491 FILLER_1_102
*492 FILLER_1_105
*493 FILLER_1_108
*494 FILLER_1_111
*495 FILLER_1_113
*496 FILLER_1_12
*497 FILLER_1_128
*498 FILLER_1_131
*499 FILLER_1_134
*500 FILLER_1_137
*501 FILLER_1_140
*502 FILLER_1_143
*503 FILLER_1_15
*504 FILLER_1_18
*505 FILLER_1_3
*506 FILLER_1_40
*507 FILLER_1_49
*508 FILLER_1_52
*509 FILLER_1_55
*510 FILLER_1_57
*511 FILLER_1_6
*512 FILLER_1_65
*513 FILLER_1_68
*514 FILLER_1_71
*515 FILLER_1_74
*516 FILLER_1_77
*517 FILLER_1_80
*518 FILLER_1_83
*519 FILLER_1_86
*520 FILLER_1_9
*521 FILLER_20_100
*522 FILLER_20_103
*523 FILLER_20_106
*524 FILLER_20_109
*525 FILLER_20_112
*526 FILLER_20_115
*527 FILLER_20_118
*528 FILLER_20_12
*529 FILLER_20_141
*530 FILLER_20_144
*531 FILLER_20_15
*532 FILLER_20_18
*533 FILLER_20_21
*534 FILLER_20_24
*535 FILLER_20_27
*536 FILLER_20_29
*537 FILLER_20_32
*538 FILLER_20_35
*539 FILLER_20_38
*540 FILLER_20_41
*541 FILLER_20_44
*542 FILLER_20_47
*543 FILLER_20_50
*544 FILLER_20_53
*545 FILLER_20_56
*546 FILLER_20_59
*547 FILLER_20_6
*548 FILLER_20_62
*549 FILLER_20_65
*550 FILLER_20_68
*551 FILLER_20_71
*552 FILLER_20_74
*553 FILLER_20_77
*554 FILLER_20_80
*555 FILLER_20_83
*556 FILLER_20_85
*557 FILLER_20_88
*558 FILLER_20_9
*559 FILLER_20_91
*560 FILLER_20_94
*561 FILLER_20_97
*562 FILLER_21_102
*563 FILLER_21_105
*564 FILLER_21_108
*565 FILLER_21_111
*566 FILLER_21_113
*567 FILLER_21_116
*568 FILLER_21_119
*569 FILLER_21_12
*570 FILLER_21_122
*571 FILLER_21_125
*572 FILLER_21_15
*573 FILLER_21_18
*574 FILLER_21_21
*575 FILLER_21_24
*576 FILLER_21_27
*577 FILLER_21_3
*578 FILLER_21_30
*579 FILLER_21_33
*580 FILLER_21_36
*581 FILLER_21_39
*582 FILLER_21_42
*583 FILLER_21_45
*584 FILLER_21_48
*585 FILLER_21_51
*586 FILLER_21_54
*587 FILLER_21_57
*588 FILLER_21_6
*589 FILLER_21_60
*590 FILLER_21_63
*591 FILLER_21_66
*592 FILLER_21_69
*593 FILLER_21_72
*594 FILLER_21_75
*595 FILLER_21_78
*596 FILLER_21_81
*597 FILLER_21_84
*598 FILLER_21_87
*599 FILLER_21_9
*600 FILLER_21_90
*601 FILLER_21_93
*602 FILLER_21_96
*603 FILLER_21_99
*604 FILLER_22_100
*605 FILLER_22_103
*606 FILLER_22_106
*607 FILLER_22_109
*608 FILLER_22_112
*609 FILLER_22_115
*610 FILLER_22_118
*611 FILLER_22_12
*612 FILLER_22_121
*613 FILLER_22_124
*614 FILLER_22_127
*615 FILLER_22_130
*616 FILLER_22_133
*617 FILLER_22_139
*618 FILLER_22_141
*619 FILLER_22_144
*620 FILLER_22_15
*621 FILLER_22_18
*622 FILLER_22_21
*623 FILLER_22_24
*624 FILLER_22_27
*625 FILLER_22_3
*626 FILLER_22_49
*627 FILLER_22_52
*628 FILLER_22_55
*629 FILLER_22_58
*630 FILLER_22_6
*631 FILLER_22_61
*632 FILLER_22_64
*633 FILLER_22_67
*634 FILLER_22_70
*635 FILLER_22_73
*636 FILLER_22_76
*637 FILLER_22_79
*638 FILLER_22_82
*639 FILLER_22_85
*640 FILLER_22_88
*641 FILLER_22_9
*642 FILLER_22_91
*643 FILLER_22_94
*644 FILLER_22_97
*645 FILLER_23_102
*646 FILLER_23_105
*647 FILLER_23_108
*648 FILLER_23_111
*649 FILLER_23_113
*650 FILLER_23_116
*651 FILLER_23_119
*652 FILLER_23_12
*653 FILLER_23_122
*654 FILLER_23_125
*655 FILLER_23_128
*656 FILLER_23_131
*657 FILLER_23_134
*658 FILLER_23_137
*659 FILLER_23_140
*660 FILLER_23_143
*661 FILLER_23_146
*662 FILLER_23_15
*663 FILLER_23_18
*664 FILLER_23_21
*665 FILLER_23_24
*666 FILLER_23_27
*667 FILLER_23_30
*668 FILLER_23_33
*669 FILLER_23_36
*670 FILLER_23_39
*671 FILLER_23_42
*672 FILLER_23_45
*673 FILLER_23_48
*674 FILLER_23_51
*675 FILLER_23_54
*676 FILLER_23_57
*677 FILLER_23_6
*678 FILLER_23_60
*679 FILLER_23_63
*680 FILLER_23_66
*681 FILLER_23_69
*682 FILLER_23_72
*683 FILLER_23_75
*684 FILLER_23_78
*685 FILLER_23_81
*686 FILLER_23_84
*687 FILLER_23_87
*688 FILLER_23_9
*689 FILLER_23_90
*690 FILLER_23_93
*691 FILLER_23_96
*692 FILLER_23_99
*693 FILLER_24_100
*694 FILLER_24_103
*695 FILLER_24_106
*696 FILLER_24_109
*697 FILLER_24_113
*698 FILLER_24_116
*699 FILLER_24_12
*700 FILLER_24_122
*701 FILLER_24_125
*702 FILLER_24_128
*703 FILLER_24_131
*704 FILLER_24_134
*705 FILLER_24_137
*706 FILLER_24_141
*707 FILLER_24_15
*708 FILLER_24_18
*709 FILLER_24_21
*710 FILLER_24_24
*711 FILLER_24_27
*712 FILLER_24_29
*713 FILLER_24_32
*714 FILLER_24_35
*715 FILLER_24_38
*716 FILLER_24_41
*717 FILLER_24_44
*718 FILLER_24_47
*719 FILLER_24_50
*720 FILLER_24_53
*721 FILLER_24_57
*722 FILLER_24_6
*723 FILLER_24_60
*724 FILLER_24_63
*725 FILLER_24_66
*726 FILLER_24_69
*727 FILLER_24_72
*728 FILLER_24_75
*729 FILLER_24_78
*730 FILLER_24_81
*731 FILLER_24_85
*732 FILLER_24_88
*733 FILLER_24_9
*734 FILLER_24_91
*735 FILLER_24_94
*736 FILLER_24_97
*737 FILLER_2_108
*738 FILLER_2_141
*739 FILLER_2_144
*740 FILLER_2_29
*741 FILLER_2_6
*742 FILLER_2_76
*743 FILLER_2_79
*744 FILLER_2_82
*745 FILLER_2_85
*746 FILLER_3_104
*747 FILLER_3_113
*748 FILLER_3_12
*749 FILLER_3_141
*750 FILLER_3_144
*751 FILLER_3_29
*752 FILLER_3_3
*753 FILLER_3_39
*754 FILLER_3_45
*755 FILLER_3_50
*756 FILLER_3_53
*757 FILLER_3_57
*758 FILLER_3_6
*759 FILLER_3_82
*760 FILLER_3_9
*761 FILLER_4_106
*762 FILLER_4_109
*763 FILLER_4_112
*764 FILLER_4_12
*765 FILLER_4_141
*766 FILLER_4_144
*767 FILLER_4_20
*768 FILLER_4_23
*769 FILLER_4_26
*770 FILLER_4_29
*771 FILLER_4_3
*772 FILLER_4_32
*773 FILLER_4_35
*774 FILLER_4_38
*775 FILLER_4_41
*776 FILLER_4_44
*777 FILLER_4_47
*778 FILLER_4_50
*779 FILLER_4_53
*780 FILLER_4_56
*781 FILLER_4_59
*782 FILLER_4_6
*783 FILLER_4_62
*784 FILLER_4_65
*785 FILLER_4_68
*786 FILLER_4_73
*787 FILLER_4_9
*788 FILLER_5_111
*789 FILLER_5_113
*790 FILLER_5_116
*791 FILLER_5_131
*792 FILLER_5_134
*793 FILLER_5_137
*794 FILLER_5_140
*795 FILLER_5_143
*796 FILLER_5_146
*797 FILLER_5_28
*798 FILLER_5_31
*799 FILLER_5_34
*800 FILLER_5_37
*801 FILLER_5_40
*802 FILLER_5_43
*803 FILLER_5_46
*804 FILLER_5_49
*805 FILLER_5_55
*806 FILLER_5_57
*807 FILLER_5_60
*808 FILLER_5_63
*809 FILLER_5_69
*810 FILLER_5_72
*811 FILLER_5_75
*812 FILLER_5_78
*813 FILLER_5_81
*814 FILLER_5_84
*815 FILLER_5_90
*816 FILLER_6_118
*817 FILLER_6_121
*818 FILLER_6_124
*819 FILLER_6_127
*820 FILLER_6_130
*821 FILLER_6_133
*822 FILLER_6_136
*823 FILLER_6_139
*824 FILLER_6_141
*825 FILLER_6_144
*826 FILLER_6_18
*827 FILLER_6_29
*828 FILLER_6_32
*829 FILLER_6_35
*830 FILLER_6_38
*831 FILLER_6_41
*832 FILLER_6_64
*833 FILLER_6_67
*834 FILLER_6_70
*835 FILLER_6_73
*836 FILLER_6_76
*837 FILLER_6_79
*838 FILLER_7_100
*839 FILLER_7_113
*840 FILLER_7_116
*841 FILLER_7_119
*842 FILLER_7_122
*843 FILLER_7_125
*844 FILLER_7_128
*845 FILLER_7_131
*846 FILLER_7_134
*847 FILLER_7_137
*848 FILLER_7_140
*849 FILLER_7_143
*850 FILLER_7_146
*851 FILLER_7_3
*852 FILLER_7_30
*853 FILLER_7_33
*854 FILLER_7_6
*855 FILLER_7_68
*856 FILLER_7_71
*857 FILLER_7_74
*858 FILLER_7_77
*859 FILLER_8_12
*860 FILLER_8_120
*861 FILLER_8_123
*862 FILLER_8_126
*863 FILLER_8_129
*864 FILLER_8_132
*865 FILLER_8_135
*866 FILLER_8_138
*867 FILLER_8_141
*868 FILLER_8_144
*869 FILLER_8_15
*870 FILLER_8_18
*871 FILLER_8_21
*872 FILLER_8_24
*873 FILLER_8_27
*874 FILLER_8_29
*875 FILLER_8_3
*876 FILLER_8_32
*877 FILLER_8_35
*878 FILLER_8_6
*879 FILLER_8_77
*880 FILLER_8_80
*881 FILLER_8_83
*882 FILLER_8_9
*883 FILLER_9_102
*884 FILLER_9_105
*885 FILLER_9_108
*886 FILLER_9_111
*887 FILLER_9_113
*888 FILLER_9_119
*889 FILLER_9_12
*890 FILLER_9_122
*891 FILLER_9_125
*892 FILLER_9_128
*893 FILLER_9_131
*894 FILLER_9_134
*895 FILLER_9_137
*896 FILLER_9_140
*897 FILLER_9_143
*898 FILLER_9_146
*899 FILLER_9_15
*900 FILLER_9_18
*901 FILLER_9_21
*902 FILLER_9_24
*903 FILLER_9_27
*904 FILLER_9_30
*905 FILLER_9_33
*906 FILLER_9_57
*907 FILLER_9_6
*908 FILLER_9_66
*909 FILLER_9_69
*910 FILLER_9_79
*911 FILLER_9_82
*912 FILLER_9_85
*913 FILLER_9_9
*914 FILLER_9_99
*915 PHY_EDGE_ROW_0_Left_25
*916 PHY_EDGE_ROW_0_Right_0
*917 PHY_EDGE_ROW_10_Left_35
*918 PHY_EDGE_ROW_10_Right_10
*919 PHY_EDGE_ROW_11_Left_36
*920 PHY_EDGE_ROW_11_Right_11
*921 PHY_EDGE_ROW_12_Left_37
*922 PHY_EDGE_ROW_12_Right_12
*923 PHY_EDGE_ROW_13_Left_38
*924 PHY_EDGE_ROW_13_Right_13
*925 PHY_EDGE_ROW_14_Left_39
*926 PHY_EDGE_ROW_14_Right_14
*927 PHY_EDGE_ROW_15_Left_40
*928 PHY_EDGE_ROW_15_Right_15
*929 PHY_EDGE_ROW_16_Left_41
*930 PHY_EDGE_ROW_16_Right_16
*931 PHY_EDGE_ROW_17_Left_42
*932 PHY_EDGE_ROW_17_Right_17
*933 PHY_EDGE_ROW_18_Left_43
*934 PHY_EDGE_ROW_18_Right_18
*935 PHY_EDGE_ROW_19_Left_44
*936 PHY_EDGE_ROW_19_Right_19
*937 PHY_EDGE_ROW_1_Left_26
*938 PHY_EDGE_ROW_1_Right_1
*939 PHY_EDGE_ROW_20_Left_45
*940 PHY_EDGE_ROW_20_Right_20
*941 PHY_EDGE_ROW_21_Left_46
*942 PHY_EDGE_ROW_21_Right_21
*943 PHY_EDGE_ROW_22_Left_47
*944 PHY_EDGE_ROW_22_Right_22
*945 PHY_EDGE_ROW_23_Left_48
*946 PHY_EDGE_ROW_23_Right_23
*947 PHY_EDGE_ROW_24_Left_49
*948 PHY_EDGE_ROW_24_Right_24
*949 PHY_EDGE_ROW_2_Left_27
*950 PHY_EDGE_ROW_2_Right_2
*951 PHY_EDGE_ROW_3_Left_28
*952 PHY_EDGE_ROW_3_Right_3
*953 PHY_EDGE_ROW_4_Left_29
*954 PHY_EDGE_ROW_4_Right_4
*955 PHY_EDGE_ROW_5_Left_30
*956 PHY_EDGE_ROW_5_Right_5
*957 PHY_EDGE_ROW_6_Left_31
*958 PHY_EDGE_ROW_6_Right_6
*959 PHY_EDGE_ROW_7_Left_32
*960 PHY_EDGE_ROW_7_Right_7
*961 PHY_EDGE_ROW_8_Left_33
*962 PHY_EDGE_ROW_8_Right_8
*963 PHY_EDGE_ROW_9_Left_34
*964 PHY_EDGE_ROW_9_Right_9
*965 TAP_TAPCELL_ROW_0_50
*966 TAP_TAPCELL_ROW_0_51
*967 TAP_TAPCELL_ROW_0_52
*968 TAP_TAPCELL_ROW_0_53
*969 TAP_TAPCELL_ROW_0_54
*970 TAP_TAPCELL_ROW_10_77
*971 TAP_TAPCELL_ROW_10_78
*972 TAP_TAPCELL_ROW_10_79
*973 TAP_TAPCELL_ROW_11_80
*974 TAP_TAPCELL_ROW_11_81
*975 TAP_TAPCELL_ROW_12_82
*976 TAP_TAPCELL_ROW_12_83
*977 TAP_TAPCELL_ROW_12_84
*978 TAP_TAPCELL_ROW_13_85
*979 TAP_TAPCELL_ROW_13_86
*980 TAP_TAPCELL_ROW_14_87
*981 TAP_TAPCELL_ROW_14_88
*982 TAP_TAPCELL_ROW_14_89
*983 TAP_TAPCELL_ROW_15_90
*984 TAP_TAPCELL_ROW_15_91
*985 TAP_TAPCELL_ROW_16_92
*986 TAP_TAPCELL_ROW_16_93
*987 TAP_TAPCELL_ROW_16_94
*988 TAP_TAPCELL_ROW_17_95
*989 TAP_TAPCELL_ROW_17_96
*990 TAP_TAPCELL_ROW_18_97
*991 TAP_TAPCELL_ROW_18_98
*992 TAP_TAPCELL_ROW_18_99
*993 TAP_TAPCELL_ROW_19_100
*994 TAP_TAPCELL_ROW_19_101
*995 TAP_TAPCELL_ROW_1_55
*996 TAP_TAPCELL_ROW_1_56
*997 TAP_TAPCELL_ROW_20_102
*998 TAP_TAPCELL_ROW_20_103
*999 TAP_TAPCELL_ROW_20_104
*1000 TAP_TAPCELL_ROW_21_105
*1001 TAP_TAPCELL_ROW_21_106
*1002 TAP_TAPCELL_ROW_22_107
*1003 TAP_TAPCELL_ROW_22_108
*1004 TAP_TAPCELL_ROW_22_109
*1005 TAP_TAPCELL_ROW_23_110
*1006 TAP_TAPCELL_ROW_23_111
*1007 TAP_TAPCELL_ROW_24_112
*1008 TAP_TAPCELL_ROW_24_113
*1009 TAP_TAPCELL_ROW_24_114
*1010 TAP_TAPCELL_ROW_24_115
*1011 TAP_TAPCELL_ROW_24_116
*1012 TAP_TAPCELL_ROW_2_57
*1013 TAP_TAPCELL_ROW_2_58
*1014 TAP_TAPCELL_ROW_2_59
*1015 TAP_TAPCELL_ROW_3_60
*1016 TAP_TAPCELL_ROW_3_61
*1017 TAP_TAPCELL_ROW_4_62
*1018 TAP_TAPCELL_ROW_4_63
*1019 TAP_TAPCELL_ROW_4_64
*1020 TAP_TAPCELL_ROW_5_65
*1021 TAP_TAPCELL_ROW_5_66
*1022 TAP_TAPCELL_ROW_6_67
*1023 TAP_TAPCELL_ROW_6_68
*1024 TAP_TAPCELL_ROW_6_69
*1025 TAP_TAPCELL_ROW_7_70
*1026 TAP_TAPCELL_ROW_7_71
*1027 TAP_TAPCELL_ROW_8_72
*1028 TAP_TAPCELL_ROW_8_73
*1029 TAP_TAPCELL_ROW_8_74
*1030 TAP_TAPCELL_ROW_9_75
*1031 TAP_TAPCELL_ROW_9_76
*1032 _072_
*1033 _073_
*1034 _074_
*1035 _075_
*1036 _076_
*1037 _077_
*1038 _078_
*1039 _079_
*1040 _080_
*1041 _081_
*1042 _082_
*1043 _083_
*1044 _084_
*1045 _085_
*1046 _086_
*1047 _087_
*1048 _088_
*1049 _089_
*1050 _090_
*1051 _091_
*1052 _092_
*1053 _093_
*1054 _094_
*1055 _095_
*1056 _096_
*1057 _097_
*1058 _098_
*1059 _099_
*1060 _100_
*1061 _101_
*1062 _102_
*1063 _103_
*1064 _104_
*1065 _105_
*1066 _106_
*1067 _107_
*1068 _108_
*1069 _109_
*1070 _110_
*1071 _111_
*1072 _112_
*1073 _113_
*1074 _114_
*1075 _115_
*1076 _116_
*1077 _117_
*1078 _118_
*1079 _119_
*1080 _120_
*1081 _121_
*1082 _122_
*1083 _123_
*1084 _124_
*1085 _125_
*1086 _126_
*1087 _127_
*1088 _128_
*1089 _129_
*1090 _130_
*1091 _131_
*1092 _132_
*1093 _133_
*1094 _134_
*1095 _135_
*1096 _136_
*1097 _137_
*1098 _138_
*1099 _139_
*1100 _140_
*1101 _141_
*1102 _142_
*1103 _143_
*1104 _144_
*1105 _145_
*1106 _146_
*1107 _147_
*1108 _148_
*1109 _149_
*1110 _150_
*1111 _151_
*1112 _152_
*1113 _153_
*1114 _154_
*1115 _155_
*1116 _156_
*1117 _157_
*1118 _158_
*1119 _159_
*1120 _160_
*1121 _161_
*1122 _162_
*1123 _163_
*1124 _164_
*1125 _165_
*1126 _166_
*1127 _167_
*1128 _168_
*1129 _169_
*1130 _170_
*1131 _171_
*1132 _172_
*1133 _173_
*1134 _174_
*1135 _175_
*1136 _176_
*1137 _177_
*1138 _178_
*1139 _179_
*1140 clkbuf_0_clk
*1141 clkbuf_0_clk_regs
*1142 clkbuf_1_0__f_clk
*1143 clkbuf_2_0__f_clk_regs
*1144 clkbuf_2_1__f_clk_regs
*1145 clkbuf_2_2__f_clk_regs
*1146 clkbuf_2_3__f_clk_regs
*1147 clkbuf_regs_0_clk
*1148 clkload0
*1149 clkload1
*1150 clkload2
*1151 fanout10
*1152 fanout11
*1153 fanout12
*1154 fanout9
*1155 hold1
*1156 hold2
*1157 hold3
*1158 hold4
*1159 hold5
*1160 hold6
*1161 hold7
*1162 hold8
*1163 input1
*1164 input2
*1165 max_cap31
*1166 max_cap32
*1167 max_cap33
*1168 output10
*1169 output11
*1170 output12
*1171 output13
*1172 output14
*1173 output15
*1174 output16
*1175 output17
*1176 output18
*1177 output19
*1178 output20
*1179 output21
*1180 output22
*1181 output23
*1182 output24
*1183 output25
*1184 output26
*1185 output27
*1186 output28
*1187 output29
*1188 output3
*1189 output30
*1190 output4
*1191 output5
*1192 output6
*1193 output7
*1194 output8
*1195 output9
*1196 place33
*1197 place34
*1198 place35
*1199 place36
*1200 place37

*PORTS
clk I
clk_comp O
dac_n[0] O
dac_n[1] O
dac_n[2] O
dac_n[3] O
dac_n[4] O
dac_n[5] O
dac_n[6] O
dac_n[7] O
dac_p[0] O
dac_p[1] O
dac_p[2] O
dac_p[3] O
dac_p[4] O
dac_p[5] O
dac_p[6] O
dac_p[7] O
dout[0] O
dout[1] O
dout[2] O
dout[3] O
dout[4] O
dout[5] O
dout[6] O
dout[7] O
eoc O
out_comp_n I
out_comp_p I
phi_sample O
phi_sample_n O
rst_n I

*D_NET *3 0.0102752
*CONN
*P clk I
*I *1140:A I *D sky130_fd_sc_hd__clkbuf_16
*I *1147:A I *D sky130_fd_sc_hd__clkbuf_16
*CAP
1 clk 0.00234874
2 *1140:A 0.000920003
3 *1147:A 0
4 *3:31 0.00180516
5 *3:17 0.00507391
6 *1140:A *1052:A 0
7 *3:31 *1046:C 9.67547e-05
8 *3:31 *155:32 0
9 *3:31 *169:38 3.0647e-05
10 *3:31 *171:25 0
*RES
1 clk *3:17 35.987 
2 *3:17 *3:31 48.9469 
3 *3:31 *1147:A 23 
4 *3:17 *1140:A 49.8633 
*END

*D_NET *4 0.000686151
*CONN
*P clk_comp O
*I *1188:X O *D sky130_fd_sc_hd__buf_1
*CAP
1 clk_comp 0.000343076
2 *1188:X 0.000343076
*RES
1 *1188:X clk_comp 49.1918 
*END

*D_NET *5 0.000864283
*CONN
*P dac_n[0] O
*I *1190:X O *D sky130_fd_sc_hd__clkbuf_1
*CAP
1 dac_n[0] 0.000432142
2 *1190:X 0.000432142
3 dac_n[0] dac_n[1] 0
4 dac_n[0] dac_p[7] 0
*RES
1 *1190:X dac_n[0] 46.6171 
*END

*D_NET *6 0.000864283
*CONN
*P dac_n[1] O
*I *1191:X O *D sky130_fd_sc_hd__clkbuf_1
*CAP
1 dac_n[1] 0.000432142
2 *1191:X 0.000432142
3 dac_n[1] dac_n[2] 0
4 dac_n[0] dac_n[1] 0
*RES
1 *1191:X dac_n[1] 46.6171 
*END

*D_NET *7 0.00087563
*CONN
*P dac_n[2] O
*I *1192:X O *D sky130_fd_sc_hd__clkbuf_1
*CAP
1 dac_n[2] 0.000423123
2 *1192:X 0.000423123
3 dac_n[2] dac_n[3] 0
4 dac_n[2] *163:14 2.93845e-05
5 dac_n[1] dac_n[2] 0
*RES
1 *1192:X dac_n[2] 46.6171 
*END

*D_NET *8 0.000864283
*CONN
*P dac_n[3] O
*I *1193:X O *D sky130_fd_sc_hd__clkbuf_1
*CAP
1 dac_n[3] 0.000432142
2 *1193:X 0.000432142
3 dac_n[3] dac_n[4] 0
4 dac_n[2] dac_n[3] 0
*RES
1 *1193:X dac_n[3] 46.6171 
*END

*D_NET *9 0.000864718
*CONN
*P dac_n[4] O
*I *1194:X O *D sky130_fd_sc_hd__clkbuf_1
*CAP
1 dac_n[4] 0.000429723
2 *1194:X 0.000429723
3 dac_n[4] dac_n[5] 0
4 dac_n[4] *119:6 5.27215e-06
5 dac_n[3] dac_n[4] 0
*RES
1 *1194:X dac_n[4] 46.6171 
*END

*D_NET *10 0.000864718
*CONN
*P dac_n[5] O
*I *1195:X O *D sky130_fd_sc_hd__clkbuf_1
*CAP
1 dac_n[5] 0.000429723
2 *1195:X 0.000429723
3 dac_n[5] dac_n[6] 0
4 dac_n[5] *119:6 5.27215e-06
5 dac_n[4] dac_n[5] 0
*RES
1 *1195:X dac_n[5] 46.6171 
*END

*D_NET *11 0.00087563
*CONN
*P dac_n[6] O
*I *1168:X O *D sky130_fd_sc_hd__clkbuf_1
*CAP
1 dac_n[6] 0.000423123
2 *1168:X 0.000423123
3 dac_n[6] dac_n[7] 0
4 dac_n[6] *1163:A 0
5 dac_n[6] *124:14 2.93845e-05
6 dac_n[5] dac_n[6] 0
*RES
1 *1168:X dac_n[6] 46.6171 
*END

*D_NET *12 0.00130868
*CONN
*P dac_n[7] O
*I *1169:X O *D sky130_fd_sc_hd__clkbuf_1
*CAP
1 dac_n[7] 0.000499964
2 *1169:X 0.000154377
3 *12:8 0.000654341
4 dac_n[7] *1163:A 0
5 dac_n[6] dac_n[7] 0
*RES
1 *1169:X *12:8 40.0507 
2 *12:8 dac_n[7] 10.8129 
*END

*D_NET *13 0.00100554
*CONN
*P dac_p[0] O
*I *1170:X O *D sky130_fd_sc_hd__clkbuf_1
*CAP
1 dac_p[0] 0.000428772
2 *1170:X 0.000428772
3 dac_p[0] dac_p[1] 0
4 dac_p[0] *21:10 0.000147992
*RES
1 *1170:X dac_p[0] 47.57 
*END

*D_NET *14 0.000864283
*CONN
*P dac_p[1] O
*I *1171:X O *D sky130_fd_sc_hd__clkbuf_1
*CAP
1 dac_p[1] 0.000432142
2 *1171:X 0.000432142
3 dac_p[1] dac_p[2] 0
4 dac_p[0] dac_p[1] 0
*RES
1 *1171:X dac_p[1] 46.6171 
*END

*D_NET *15 0.000869211
*CONN
*P dac_p[2] O
*I *1172:X O *D sky130_fd_sc_hd__clkbuf_1
*CAP
1 dac_p[2] 0.000424865
2 *1172:X 0.000424865
3 dac_p[2] dac_p[3] 0
4 dac_p[2] *1171:A 1.94812e-05
5 dac_p[1] dac_p[2] 0
*RES
1 *1172:X dac_p[2] 46.6171 
*END

*D_NET *16 0.00087563
*CONN
*P dac_p[3] O
*I *1173:X O *D sky130_fd_sc_hd__clkbuf_1
*CAP
1 dac_p[3] 0.000423123
2 *1173:X 0.000423123
3 dac_p[3] dac_p[4] 0
4 dac_p[3] *129:27 2.93845e-05
5 dac_p[2] dac_p[3] 0
*RES
1 *1173:X dac_p[3] 46.6171 
*END

*D_NET *17 0.000884719
*CONN
*P dac_p[4] O
*I *1174:X O *D sky130_fd_sc_hd__clkbuf_1
*CAP
1 dac_p[4] 0.00042804
2 *1174:X 0.00042804
3 dac_p[4] dac_p[5] 0
4 dac_p[4] *1174:A 2.86398e-05
5 dac_p[3] dac_p[4] 0
*RES
1 *1174:X dac_p[4] 46.6171 
*END

*D_NET *18 0.000865299
*CONN
*P dac_p[5] O
*I *1175:X O *D sky130_fd_sc_hd__clkbuf_1
*CAP
1 dac_p[5] 0.000432649
2 *1175:X 0.000432649
3 dac_p[5] dac_p[6] 0
4 dac_p[4] dac_p[5] 0
*RES
1 *1175:X dac_p[5] 46.6171 
*END

*D_NET *19 0.000864283
*CONN
*P dac_p[6] O
*I *1176:X O *D sky130_fd_sc_hd__clkbuf_1
*CAP
1 dac_p[6] 0.000432142
2 *1176:X 0.000432142
3 dac_p[6] dac_p[7] 0
4 dac_p[5] dac_p[6] 0
*RES
1 *1176:X dac_p[6] 46.6171 
*END

*D_NET *20 0.000864283
*CONN
*P dac_p[7] O
*I *1177:X O *D sky130_fd_sc_hd__clkbuf_1
*CAP
1 dac_p[7] 0.000432142
2 *1177:X 0.000432142
3 dac_n[0] dac_p[7] 0
4 dac_p[6] dac_p[7] 0
*RES
1 *1177:X dac_p[7] 46.6171 
*END

*D_NET *21 0.00129272
*CONN
*P dout[0] O
*I *1178:X O *D sky130_fd_sc_hd__clkbuf_1
*CAP
1 dout[0] 0.00012607
2 *1178:X 0.000446296
3 *21:10 0.000572366
4 *21:10 *126:14 0
5 dac_p[0] *21:10 0.000147992
*RES
1 *1178:X *21:10 47.6839 
2 *21:10 dout[0] 8.4816 
*END

*D_NET *22 0.00078797
*CONN
*P dout[1] O
*I *1179:X O *D sky130_fd_sc_hd__clkbuf_1
*CAP
1 dout[1] 0.000126491
2 *1179:X 0.000267494
3 *22:10 0.000393985
*RES
1 *1179:X *22:10 42.0289 
2 *22:10 dout[1] 8.4816 
*END

*D_NET *23 0.00060885
*CONN
*P dout[2] O
*I *1180:X O *D sky130_fd_sc_hd__clkbuf_1
*CAP
1 dout[2] 0.000274813
2 *1180:X 0.000274813
3 dout[2] *126:14 5.92233e-05
*RES
1 *1180:X dout[2] 48.4875 
*END

*D_NET *24 0.00078797
*CONN
*P dout[3] O
*I *1181:X O *D sky130_fd_sc_hd__clkbuf_1
*CAP
1 dout[3] 0.000126491
2 *1181:X 0.000267494
3 *24:10 0.000393985
*RES
1 *1181:X *24:10 42.0289 
2 *24:10 dout[3] 8.4816 
*END

*D_NET *25 0.000741575
*CONN
*P dout[4] O
*I *1182:X O *D sky130_fd_sc_hd__clkbuf_1
*CAP
1 dout[4] 0.000112553
2 *1182:X 0.000258235
3 *25:10 0.000370788
4 *25:10 *139:8 0
*RES
1 *1182:X *25:10 42.0289 
2 *25:10 dout[4] 8.4816 
*END

*D_NET *26 0.000473168
*CONN
*P dout[5] O
*I *1183:X O *D sky130_fd_sc_hd__clkbuf_1
*CAP
1 dout[5] 0.000236584
2 *1183:X 0.000236584
*RES
1 *1183:X dout[5] 47.0789 
*END

*D_NET *27 0.000741575
*CONN
*P dout[6] O
*I *1184:X O *D sky130_fd_sc_hd__clkbuf_1
*CAP
1 dout[6] 0.000112553
2 *1184:X 0.000258235
3 *27:10 0.000370788
*RES
1 *1184:X *27:10 42.0289 
2 *27:10 dout[6] 8.4816 
*END

*D_NET *28 0.000637222
*CONN
*P dout[7] O
*I *1185:X O *D sky130_fd_sc_hd__clkbuf_1
*CAP
1 dout[7] 0.000318611
2 *1185:X 0.000318611
*RES
1 *1185:X dout[7] 49.8062 
*END

*D_NET *29 0.00100188
*CONN
*P eoc O
*I *1186:X O *D sky130_fd_sc_hd__clkbuf_1
*CAP
1 eoc 0.000187078
2 *1186:X 0.000313865
3 *29:10 0.000500942
*RES
1 *1186:X *29:10 43.8725 
2 *29:10 eoc 8.672 
*END

*D_NET *31 0.000719531
*CONN
*P out_comp_p I
*I *1163:A I *D sky130_fd_sc_hd__clkbuf_1
*CAP
1 out_comp_p 0.000359765
2 *1163:A 0.000359765
3 dac_n[6] *1163:A 0
4 dac_n[7] *1163:A 0
*RES
1 out_comp_p *1163:A 49.1918 
*END

*D_NET *32 0.000428272
*CONN
*P phi_sample O
*I *1187:X O *D sky130_fd_sc_hd__clkbuf_1
*CAP
1 phi_sample 0.000214136
2 *1187:X 0.000214136
3 phi_sample *125:16 0
*RES
1 *1187:X phi_sample 47.0789 
*END

*D_NET *33 0.000490307
*CONN
*P phi_sample_n O
*I *1189:X O *D sky130_fd_sc_hd__clkbuf_1
*CAP
1 phi_sample_n 0.000245154
2 *1189:X 0.000245154
*RES
1 *1189:X phi_sample_n 47.0789 
*END

*D_NET *34 0.00115674
*CONN
*P rst_n I
*I *1164:A I *D sky130_fd_sc_hd__buf_1
*CAP
1 rst_n 0.000562226
2 *1164:A 0
3 *34:9 0.000562226
4 *34:9 *130:8 3.22879e-05
*RES
1 rst_n *34:9 27.035 
2 *34:9 *1164:A 23 
*END

*D_NET *35 0.001379
*CONN
*I *1117:D I *D sky130_fd_sc_hd__dfrtp_4
*I *1039:Y O *D sky130_fd_sc_hd__a21oi_1
*CAP
1 *1117:D 2.72544e-05
2 *1039:Y 0.00027834
3 *35:8 0.000305594
4 *1117:D *118:12 5.50106e-05
5 *35:8 *122:16 9.82485e-05
6 *35:8 *159:10 0.000326992
7 *35:8 *170:10 0.000229955
8 *35:8 *171:8 5.76076e-05
*RES
1 *1039:Y *35:8 46.5964 
2 *35:8 *1117:D 38.6214 
*END

*D_NET *36 0.00169984
*CONN
*I *1118:D I *D sky130_fd_sc_hd__dfrtp_4
*I *1044:X O *D sky130_fd_sc_hd__and3_1
*CAP
1 *1118:D 0
2 *1044:X 0.000675735
3 *36:10 0.000675735
4 *36:10 *1041:A1 0
5 *36:10 *1082:B 0
6 *36:10 *1129:RESET_B 0.000157222
7 *36:10 *37:8 0
8 *36:10 *146:61 0.000191148
*RES
1 *1044:X *36:10 49.6207 
2 *36:10 *1118:D 38 
*END

*D_NET *37 0.000261685
*CONN
*I *1119:D I *D sky130_fd_sc_hd__dfrtp_4
*I *1049:X O *D sky130_fd_sc_hd__a21o_1
*CAP
1 *1119:D 0
2 *1049:X 7.5386e-05
3 *37:8 7.5386e-05
4 *37:8 *1041:A1 0.000110913
5 *36:10 *37:8 0
*RES
1 *1049:X *37:8 39.5536 
2 *37:8 *1119:D 38 
*END

*D_NET *38 0.00039385
*CONN
*I *1120:D I *D sky130_fd_sc_hd__dfrtp_4
*I *1051:X O *D sky130_fd_sc_hd__a21o_1
*CAP
1 *1120:D 0
2 *1051:X 0.000127015
3 *38:10 0.000127015
4 *38:10 *1075:D_N 0.000139819
*RES
1 *1051:X *38:10 40.175 
2 *38:10 *1120:D 38 
*END

*D_NET *39 0.0163939
*CONN
*I *1124:D I *D sky130_fd_sc_hd__dfrtp_1
*I *1097:B I *D sky130_fd_sc_hd__nor2_1
*I *1056:B I *D sky130_fd_sc_hd__and2_4