* NGSPICE file created from sar_controller.ext - technology: sky130A

* Black-box entry subcircuit for sky130_fd_sc_hd__decap_3 abstract view
.subckt sky130_fd_sc_hd__decap_3 VGND VNB VPB VPWR
.ends

* Black-box entry subcircuit for sky130_fd_sc_hd__fill_1 abstract view
.subckt sky130_fd_sc_hd__fill_1 VGND VNB VPB VPWR
.ends

* Black-box entry subcircuit for sky130_fd_sc_hd__fill_2 abstract view
.subckt sky130_fd_sc_hd__fill_2 VGND VNB VPB VPWR
.ends

* Black-box entry subcircuit for sky130_fd_sc_hd__or2_1 abstract view
.subckt sky130_fd_sc_hd__or2_1 A B VGND VNB VPB VPWR X
.ends

* Black-box entry subcircuit for sky130_fd_sc_hd__tapvpwrvgnd_1 abstract view
.subckt sky130_fd_sc_hd__tapvpwrvgnd_1 VGND VPWR
.ends

* Black-box entry subcircuit for sky130_fd_sc_hd__and2_1 abstract view
.subckt sky130_fd_sc_hd__and2_1 A B VGND VNB VPB VPWR X
.ends

* Black-box entry subcircuit for sky130_fd_sc_hd__clkbuf_1 abstract view
.subckt sky130_fd_sc_hd__clkbuf_1 A VGND VNB VPB VPWR X
.ends

* Black-box entry subcircuit for sky130_fd_sc_hd__o21a_1 abstract view
.subckt sky130_fd_sc_hd__o21a_1 A1 A2 B1 VGND VNB VPB VPWR X
.ends

* Black-box entry subcircuit for sky130_fd_sc_hd__mux2_1 abstract view
.subckt sky130_fd_sc_hd__mux2_1 A0 A1 S VGND VNB VPB VPWR X
.ends

* Black-box entry subcircuit for sky130_fd_sc_hd__clkinv_1 abstract view
.subckt sky130_fd_sc_hd__clkinv_1 A VGND VNB VPB VPWR Y
.ends

* Black-box entry subcircuit for sky130_fd_sc_hd__nor2_1 abstract view
.subckt sky130_fd_sc_hd__nor2_1 A B VGND VNB VPB VPWR Y
.ends

* Black-box entry subcircuit for sky130_fd_sc_hd__clkinv_2 abstract view
.subckt sky130_fd_sc_hd__clkinv_2 A VGND VNB VPB VPWR Y
.ends

* Black-box entry subcircuit for sky130_fd_sc_hd__dfrtp_1 abstract view
.subckt sky130_fd_sc_hd__dfrtp_1 CLK D RESET_B VGND VNB VPB VPWR Q
.ends

* Black-box entry subcircuit for sky130_fd_sc_hd__inv_4 abstract view
.subckt sky130_fd_sc_hd__inv_4 A VGND VNB VPB VPWR Y
.ends

* Black-box entry subcircuit for sky130_fd_sc_hd__dfstp_1 abstract view
.subckt sky130_fd_sc_hd__dfstp_1 CLK D SET_B VGND VNB VPB VPWR Q
.ends

* Black-box entry subcircuit for sky130_fd_sc_hd__clkbuf_16 abstract view
.subckt sky130_fd_sc_hd__clkbuf_16 A VGND VNB VPB VPWR X
.ends

* Black-box entry subcircuit for sky130_fd_sc_hd__and2b_1 abstract view
.subckt sky130_fd_sc_hd__and2b_1 A_N B VGND VNB VPB VPWR X
.ends

* Black-box entry subcircuit for sky130_fd_sc_hd__or3_1 abstract view
.subckt sky130_fd_sc_hd__or3_1 A B C VGND VNB VPB VPWR X
.ends

* Black-box entry subcircuit for sky130_fd_sc_hd__and2_4 abstract view
.subckt sky130_fd_sc_hd__and2_4 A B VGND VNB VPB VPWR X
.ends

* Black-box entry subcircuit for sky130_fd_sc_hd__a21oi_1 abstract view
.subckt sky130_fd_sc_hd__a21oi_1 A1 A2 B1 VGND VNB VPB VPWR Y
.ends

* Black-box entry subcircuit for sky130_fd_sc_hd__or2_4 abstract view
.subckt sky130_fd_sc_hd__or2_4 A B VGND VNB VPB VPWR X
.ends

* Black-box entry subcircuit for sky130_fd_sc_hd__and4bb_4 abstract view
.subckt sky130_fd_sc_hd__and4bb_4 A_N B_N C D VGND VNB VPB VPWR X
.ends

* Black-box entry subcircuit for sky130_fd_sc_hd__or3_4 abstract view
.subckt sky130_fd_sc_hd__or3_4 A B C VGND VNB VPB VPWR X
.ends

* Black-box entry subcircuit for sky130_fd_sc_hd__o31a_1 abstract view
.subckt sky130_fd_sc_hd__o31a_1 A1 A2 A3 B1 VGND VNB VPB VPWR X
.ends

* Black-box entry subcircuit for sky130_fd_sc_hd__nand2b_2 abstract view
.subckt sky130_fd_sc_hd__nand2b_2 A_N B VGND VNB VPB VPWR Y
.ends

* Black-box entry subcircuit for sky130_fd_sc_hd__buf_1 abstract view
.subckt sky130_fd_sc_hd__buf_1 A VGND VNB VPB VPWR X
.ends

* Black-box entry subcircuit for sky130_fd_sc_hd__nor2_2 abstract view
.subckt sky130_fd_sc_hd__nor2_2 A B VGND VNB VPB VPWR Y
.ends

* Black-box entry subcircuit for sky130_fd_sc_hd__and2b_4 abstract view
.subckt sky130_fd_sc_hd__and2b_4 A_N B VGND VNB VPB VPWR X
.ends

* Black-box entry subcircuit for sky130_fd_sc_hd__dfrtp_4 abstract view
.subckt sky130_fd_sc_hd__dfrtp_4 CLK D RESET_B VGND VNB VPB VPWR Q
.ends

* Black-box entry subcircuit for sky130_fd_sc_hd__inv_1 abstract view
.subckt sky130_fd_sc_hd__inv_1 A VGND VNB VPB VPWR Y
.ends

* Black-box entry subcircuit for sky130_fd_sc_hd__clkbuf_2 abstract view
.subckt sky130_fd_sc_hd__clkbuf_2 A VGND VNB VPB VPWR X
.ends

* Black-box entry subcircuit for sky130_fd_sc_hd__a21o_1 abstract view
.subckt sky130_fd_sc_hd__a21o_1 A1 A2 B1 VGND VNB VPB VPWR X
.ends

* Black-box entry subcircuit for sky130_fd_sc_hd__inv_2 abstract view
.subckt sky130_fd_sc_hd__inv_2 A VGND VNB VPB VPWR Y
.ends

* Black-box entry subcircuit for sky130_fd_sc_hd__or4bb_4 abstract view
.subckt sky130_fd_sc_hd__or4bb_4 A B C_N D_N VGND VNB VPB VPWR X
.ends

* Black-box entry subcircuit for sky130_fd_sc_hd__and4b_4 abstract view
.subckt sky130_fd_sc_hd__and4b_4 A_N B C D VGND VNB VPB VPWR X
.ends

* Black-box entry subcircuit for sky130_fd_sc_hd__buf_2 abstract view
.subckt sky130_fd_sc_hd__buf_2 A VGND VNB VPB VPWR X
.ends

* Black-box entry subcircuit for sky130_fd_sc_hd__a211o_1 abstract view
.subckt sky130_fd_sc_hd__a211o_1 A1 A2 B1 C1 VGND VNB VPB VPWR X
.ends

* Black-box entry subcircuit for sky130_fd_sc_hd__o21ba_1 abstract view
.subckt sky130_fd_sc_hd__o21ba_1 A1 A2 B1_N VGND VNB VPB VPWR X
.ends

* Black-box entry subcircuit for sky130_fd_sc_hd__o22a_1 abstract view
.subckt sky130_fd_sc_hd__o22a_1 A1 A2 B1 B2 VGND VNB VPB VPWR X
.ends

* Black-box entry subcircuit for sky130_fd_sc_hd__dlygate4sd3_1 abstract view
.subckt sky130_fd_sc_hd__dlygate4sd3_1 A VGND VNB VPB VPWR X
.ends

* Black-box entry subcircuit for sky130_fd_sc_hd__and4_4 abstract view
.subckt sky130_fd_sc_hd__and4_4 A B C D VGND VNB VPB VPWR X
.ends

* Black-box entry subcircuit for sky130_fd_sc_hd__and3_4 abstract view
.subckt sky130_fd_sc_hd__and3_4 A B C VGND VNB VPB VPWR X
.ends

* Black-box entry subcircuit for sky130_fd_sc_hd__and4bb_1 abstract view
.subckt sky130_fd_sc_hd__and4bb_1 A_N B_N C D VGND VNB VPB VPWR X
.ends

* Black-box entry subcircuit for sky130_fd_sc_hd__o21ai_1 abstract view
.subckt sky130_fd_sc_hd__o21ai_1 A1 A2 B1 VGND VNB VPB VPWR Y
.ends

* Black-box entry subcircuit for sky130_fd_sc_hd__and3_1 abstract view
.subckt sky130_fd_sc_hd__and3_1 A B C VGND VNB VPB VPWR X
.ends

* Black-box entry subcircuit for sky130_fd_sc_hd__a31oi_1 abstract view
.subckt sky130_fd_sc_hd__a31oi_1 A1 A2 A3 B1 VGND VNB VPB VPWR Y
.ends

* Black-box entry subcircuit for sky130_fd_sc_hd__nand2_1 abstract view
.subckt sky130_fd_sc_hd__nand2_1 A B VGND VNB VPB VPWR Y
.ends

* Black-box entry subcircuit for sky130_fd_sc_hd__a31o_1 abstract view
.subckt sky130_fd_sc_hd__a31o_1 A1 A2 A3 B1 VGND VNB VPB VPWR X
.ends

* Black-box entry subcircuit for sky130_fd_sc_hd__or4b_4 abstract view
.subckt sky130_fd_sc_hd__or4b_4 A B C D_N VGND VNB VPB VPWR X
.ends

.subckt sar_controller VGND VPWR clk clk_comp dac_n[0] dac_n[1] dac_n[2] dac_n[3]
+ dac_n[4] dac_n[5] dac_n[6] dac_n[7] dac_p[0] dac_p[1] dac_p[2] dac_p[3] dac_p[4]
+ dac_p[5] dac_p[6] dac_p[7] dout[0] dout[1] dout[2] dout[3] dout[4] dout[5] dout[6]
+ dout[7] eoc out_comp_n out_comp_p phi_sample phi_sample_n rst_n
XFILLER_22_144 VGND VGND VPWR VPWR sky130_fd_sc_hd__decap_3
XFILLER_22_133 VGND VGND VPWR VPWR sky130_fd_sc_hd__fill_1
XFILLER_22_100 VGND VGND VPWR VPWR sky130_fd_sc_hd__decap_3
XFILLER_13_111 VGND VGND VPWR VPWR sky130_fd_sc_hd__fill_1
XFILLER_3_12 VGND VGND VPWR VPWR sky130_fd_sc_hd__decap_3
XFILLER_3_45 VGND VGND VPWR VPWR sky130_fd_sc_hd__fill_2
XFILLER_9_137 VGND VGND VPWR VPWR sky130_fd_sc_hd__decap_3
XFILLER_12_65 VGND VGND VPWR VPWR sky130_fd_sc_hd__decap_3
XFILLER_12_32 VGND VGND VPWR VPWR sky130_fd_sc_hd__decap_3
XFILLER_10_125 VGND VGND VPWR VPWR sky130_fd_sc_hd__decap_3
XFILLER_6_118 VGND VGND VPWR VPWR sky130_fd_sc_hd__decap_3
XFILLER_5_140 VGND VGND VPWR VPWR sky130_fd_sc_hd__decap_3
XFILLER_23_75 VGND VGND VPWR VPWR sky130_fd_sc_hd__decap_3
XFILLER_23_42 VGND VGND VPWR VPWR sky130_fd_sc_hd__decap_3
X_131_ _031_ _038_ VGND VGND VPWR VPWR _014_ sky130_fd_sc_hd__or2_1
XFILLER_17_9 VGND VGND VPWR VPWR sky130_fd_sc_hd__decap_3
XFILLER_0_57 VGND VGND VPWR VPWR sky130_fd_sc_hd__decap_3
XFILLER_0_24 VGND VGND VPWR VPWR sky130_fd_sc_hd__decap_3
XFILLER_9_33 VGND VGND VPWR VPWR sky130_fd_sc_hd__decap_3
XFILLER_9_66 VGND VGND VPWR VPWR sky130_fd_sc_hd__decap_3
XFILLER_9_99 VGND VGND VPWR VPWR sky130_fd_sc_hd__decap_3
XTAP_TAPCELL_ROW_18_97 VGND VPWR sky130_fd_sc_hd__tapvpwrvgnd_1
XFILLER_18_97 VGND VGND VPWR VPWR sky130_fd_sc_hd__decap_3
XFILLER_15_6 VGND VGND VPWR VPWR sky130_fd_sc_hd__decap_3
X_114_ _062_ _029_ VGND VGND VPWR VPWR _006_ sky130_fd_sc_hd__and2_1
XFILLER_20_65 VGND VGND VPWR VPWR sky130_fd_sc_hd__decap_3
XFILLER_20_32 VGND VGND VPWR VPWR sky130_fd_sc_hd__decap_3
XFILLER_20_21 VGND VGND VPWR VPWR sky130_fd_sc_hd__decap_3
XFILLER_6_67 VGND VGND VPWR VPWR sky130_fd_sc_hd__decap_3
XFILLER_15_65 VGND VGND VPWR VPWR sky130_fd_sc_hd__fill_2
XFILLER_16_131 VGND VGND VPWR VPWR sky130_fd_sc_hd__decap_3
Xoutput7 net7 VGND VGND VPWR VPWR dac_n[3] sky130_fd_sc_hd__clkbuf_1
Xoutput20 net24 VGND VGND VPWR VPWR dout[0] sky130_fd_sc_hd__clkbuf_1
XTAP_TAPCELL_ROW_2_57 VGND VPWR sky130_fd_sc_hd__tapvpwrvgnd_1
XFILLER_22_112 VGND VGND VPWR VPWR sky130_fd_sc_hd__decap_3
XFILLER_13_145 VGND VGND VPWR VPWR sky130_fd_sc_hd__fill_2
XFILLER_3_57 VGND VGND VPWR VPWR sky130_fd_sc_hd__fill_1
XFILLER_9_105 VGND VGND VPWR VPWR sky130_fd_sc_hd__decap_3
XFILLER_12_99 VGND VGND VPWR VPWR sky130_fd_sc_hd__decap_3
XFILLER_12_44 VGND VGND VPWR VPWR sky130_fd_sc_hd__decap_3
XFILLER_10_137 VGND VGND VPWR VPWR sky130_fd_sc_hd__decap_3
XFILLER_23_54 VGND VGND VPWR VPWR sky130_fd_sc_hd__fill_2
XFILLER_23_21 VGND VGND VPWR VPWR sky130_fd_sc_hd__decap_3
XPHY_EDGE_ROW_21_Right_21 VGND VGND VPWR VPWR sky130_fd_sc_hd__decap_3
X_130_ net34 _054_ net50 VGND VGND VPWR VPWR _038_ sky130_fd_sc_hd__o21a_1
XPHY_EDGE_ROW_12_Right_12 VGND VGND VPWR VPWR sky130_fd_sc_hd__decap_3
XFILLER_23_87 VGND VGND VPWR VPWR sky130_fd_sc_hd__decap_3
XFILLER_0_47 VGND VGND VPWR VPWR sky130_fd_sc_hd__decap_3
XFILLER_0_14 VGND VGND VPWR VPWR sky130_fd_sc_hd__decap_3
XFILLER_2_144 VGND VGND VPWR VPWR sky130_fd_sc_hd__decap_3
XFILLER_9_12 VGND VGND VPWR VPWR sky130_fd_sc_hd__decap_3
XTAP_TAPCELL_ROW_18_98 VGND VPWR sky130_fd_sc_hd__tapvpwrvgnd_1
XFILLER_18_65 VGND VGND VPWR VPWR sky130_fd_sc_hd__decap_3
XFILLER_18_32 VGND VGND VPWR VPWR sky130_fd_sc_hd__decap_3
XFILLER_18_21 VGND VGND VPWR VPWR sky130_fd_sc_hd__decap_3
X_113_ net27 net42 _059_ VGND VGND VPWR VPWR _029_ sky130_fd_sc_hd__mux2_1
XPHY_EDGE_ROW_12_Left_37 VGND VGND VPWR VPWR sky130_fd_sc_hd__decap_3
XFILLER_20_88 VGND VGND VPWR VPWR sky130_fd_sc_hd__decap_3
XFILLER_20_77 VGND VGND VPWR VPWR sky130_fd_sc_hd__decap_3
XFILLER_20_44 VGND VGND VPWR VPWR sky130_fd_sc_hd__decap_3
XFILLER_19_140 VGND VGND VPWR VPWR sky130_fd_sc_hd__decap_3
XFILLER_6_35 VGND VGND VPWR VPWR sky130_fd_sc_hd__decap_3
XFILLER_6_79 VGND VGND VPWR VPWR sky130_fd_sc_hd__fill_1
XFILLER_15_33 VGND VGND VPWR VPWR sky130_fd_sc_hd__decap_3
XPHY_EDGE_ROW_6_Right_6 VGND VGND VPWR VPWR sky130_fd_sc_hd__decap_3
Xoutput10 net14 VGND VGND VPWR VPWR dac_n[6] sky130_fd_sc_hd__clkbuf_1
Xoutput8 net8 VGND VGND VPWR VPWR dac_n[4] sky130_fd_sc_hd__clkbuf_1
Xoutput21 net25 VGND VGND VPWR VPWR dout[1] sky130_fd_sc_hd__clkbuf_1
XTAP_TAPCELL_ROW_2_58 VGND VPWR sky130_fd_sc_hd__tapvpwrvgnd_1
XFILLER_22_124 VGND VGND VPWR VPWR sky130_fd_sc_hd__decap_3
XPHY_EDGE_ROW_15_Left_40 VGND VGND VPWR VPWR sky130_fd_sc_hd__decap_3
XFILLER_13_113 VGND VGND VPWR VPWR sky130_fd_sc_hd__fill_2
XFILLER_9_128 VGND VGND VPWR VPWR sky130_fd_sc_hd__decap_3
XFILLER_12_56 VGND VGND VPWR VPWR sky130_fd_sc_hd__decap_3
XFILLER_10_116 VGND VGND VPWR VPWR sky130_fd_sc_hd__decap_3
XPHY_EDGE_ROW_0_Left_25 VGND VGND VPWR VPWR sky130_fd_sc_hd__decap_3
XFILLER_5_131 VGND VGND VPWR VPWR sky130_fd_sc_hd__decap_3
XFILLER_23_99 VGND VGND VPWR VPWR sky130_fd_sc_hd__decap_3
XFILLER_23_66 VGND VGND VPWR VPWR sky130_fd_sc_hd__decap_3
XFILLER_23_33 VGND VGND VPWR VPWR sky130_fd_sc_hd__decap_3
XFILLER_0_37 VGND VGND VPWR VPWR sky130_fd_sc_hd__decap_3
XFILLER_3_3 VGND VGND VPWR VPWR sky130_fd_sc_hd__decap_3
XFILLER_9_24 VGND VGND VPWR VPWR sky130_fd_sc_hd__decap_3
XTAP_TAPCELL_ROW_18_99 VGND VPWR sky130_fd_sc_hd__tapvpwrvgnd_1
XFILLER_9_57 VGND VGND VPWR VPWR sky130_fd_sc_hd__fill_2
XFILLER_9_79 VGND VGND VPWR VPWR sky130_fd_sc_hd__decap_3
XFILLER_18_88 VGND VGND VPWR VPWR sky130_fd_sc_hd__decap_3
XFILLER_18_77 VGND VGND VPWR VPWR sky130_fd_sc_hd__fill_2
X_112_ _060_ _028_ VGND VGND VPWR VPWR _005_ sky130_fd_sc_hd__or2_1
XFILLER_22_9 VGND VGND VPWR VPWR sky130_fd_sc_hd__decap_3
Xfanout9 net12 VGND VGND VPWR VPWR net9 sky130_fd_sc_hd__clkbuf_1
XFILLER_20_56 VGND VGND VPWR VPWR sky130_fd_sc_hd__decap_3
XFILLER_20_12 VGND VGND VPWR VPWR sky130_fd_sc_hd__decap_3
XFILLER_1_80 VGND VGND VPWR VPWR sky130_fd_sc_hd__decap_3
XFILLER_20_6 VGND VGND VPWR VPWR sky130_fd_sc_hd__decap_3
XFILLER_16_144 VGND VGND VPWR VPWR sky130_fd_sc_hd__decap_3
XFILLER_15_12 VGND VGND VPWR VPWR sky130_fd_sc_hd__fill_1
Xoutput9 net13 VGND VGND VPWR VPWR dac_n[5] sky130_fd_sc_hd__clkbuf_1
Xoutput11 net15 VGND VGND VPWR VPWR dac_n[7] sky130_fd_sc_hd__clkbuf_1
XTAP_TAPCELL_ROW_2_59 VGND VPWR sky130_fd_sc_hd__tapvpwrvgnd_1
Xoutput22 net26 VGND VGND VPWR VPWR dout[2] sky130_fd_sc_hd__clkbuf_1
XFILLER_22_103 VGND VGND VPWR VPWR sky130_fd_sc_hd__decap_3
XFILLER_12_68 VGND VGND VPWR VPWR sky130_fd_sc_hd__fill_1
XFILLER_12_35 VGND VGND VPWR VPWR sky130_fd_sc_hd__decap_3
XFILLER_10_128 VGND VGND VPWR VPWR sky130_fd_sc_hd__decap_3
XFILLER_5_143 VGND VGND VPWR VPWR sky130_fd_sc_hd__decap_3
XFILLER_23_78 VGND VGND VPWR VPWR sky130_fd_sc_hd__decap_3
XFILLER_23_45 VGND VGND VPWR VPWR sky130_fd_sc_hd__decap_3
XFILLER_23_12 VGND VGND VPWR VPWR sky130_fd_sc_hd__decap_3
XFILLER_0_27 VGND VGND VPWR VPWR sky130_fd_sc_hd__fill_1
XFILLER_9_69 VGND VGND VPWR VPWR sky130_fd_sc_hd__decap_3
XFILLER_18_12 VGND VGND VPWR VPWR sky130_fd_sc_hd__decap_3
XFILLER_15_9 VGND VGND VPWR VPWR sky130_fd_sc_hd__decap_3
X_111_ _048_ net13 _026_ VGND VGND VPWR VPWR _028_ sky130_fd_sc_hd__mux2_1
XFILLER_20_24 VGND VGND VPWR VPWR sky130_fd_sc_hd__decap_3
XFILLER_20_68 VGND VGND VPWR VPWR sky130_fd_sc_hd__decap_3
XFILLER_20_35 VGND VGND VPWR VPWR sky130_fd_sc_hd__decap_3
XFILLER_19_131 VGND VGND VPWR VPWR sky130_fd_sc_hd__decap_3
XFILLER_13_6 VGND VGND VPWR VPWR sky130_fd_sc_hd__decap_3
XFILLER_15_57 VGND VGND VPWR VPWR sky130_fd_sc_hd__fill_1
Xoutput12 net16 VGND VGND VPWR VPWR dac_p[0] sky130_fd_sc_hd__clkbuf_1
Xoutput23 net27 VGND VGND VPWR VPWR dout[3] sky130_fd_sc_hd__clkbuf_1
XFILLER_16_134 VGND VGND VPWR VPWR sky130_fd_sc_hd__decap_3
XFILLER_11_3 VGND VGND VPWR VPWR sky130_fd_sc_hd__decap_3
XFILLER_22_115 VGND VGND VPWR VPWR sky130_fd_sc_hd__decap_3
XTAP_TAPCELL_ROW_23_110 VGND VPWR sky130_fd_sc_hd__tapvpwrvgnd_1
XFILLER_9_108 VGND VGND VPWR VPWR sky130_fd_sc_hd__decap_3
XFILLER_9_119 VGND VGND VPWR VPWR sky130_fd_sc_hd__decap_3
XTAP_TAPCELL_ROW_20_102 VGND VPWR sky130_fd_sc_hd__tapvpwrvgnd_1
XFILLER_8_141 VGND VGND VPWR VPWR sky130_fd_sc_hd__decap_3
XFILLER_12_47 VGND VGND VPWR VPWR sky130_fd_sc_hd__decap_3
XFILLER_5_111 VGND VGND VPWR VPWR sky130_fd_sc_hd__fill_1
XFILLER_23_57 VGND VGND VPWR VPWR sky130_fd_sc_hd__decap_3
XFILLER_23_24 VGND VGND VPWR VPWR sky130_fd_sc_hd__decap_3
XFILLER_0_17 VGND VGND VPWR VPWR sky130_fd_sc_hd__decap_3
XFILLER_9_15 VGND VGND VPWR VPWR sky130_fd_sc_hd__decap_3
XFILLER_18_68 VGND VGND VPWR VPWR sky130_fd_sc_hd__decap_3
XFILLER_18_35 VGND VGND VPWR VPWR sky130_fd_sc_hd__decap_3
XFILLER_18_24 VGND VGND VPWR VPWR sky130_fd_sc_hd__decap_3
Xclkload0 clknet_2_1__leaf_clk_regs VGND VGND VPWR VPWR clkload0/Y sky130_fd_sc_hd__clkinv_1
X_110_ _048_ _026_ VGND VGND VPWR VPWR _027_ sky130_fd_sc_hd__nor2_1
XFILLER_1_71 VGND VGND VPWR VPWR sky130_fd_sc_hd__decap_3
XFILLER_20_47 VGND VGND VPWR VPWR sky130_fd_sc_hd__decap_3
XFILLER_19_143 VGND VGND VPWR VPWR sky130_fd_sc_hd__fill_1
XFILLER_10_91 VGND VGND VPWR VPWR sky130_fd_sc_hd__decap_3
XFILLER_6_38 VGND VGND VPWR VPWR sky130_fd_sc_hd__decap_3
XFILLER_15_36 VGND VGND VPWR VPWR sky130_fd_sc_hd__decap_3
Xoutput24 net28 VGND VGND VPWR VPWR dout[4] sky130_fd_sc_hd__clkbuf_1
Xoutput13 net17 VGND VGND VPWR VPWR dac_p[1] sky130_fd_sc_hd__clkbuf_1
XFILLER_21_90 VGND VGND VPWR VPWR sky130_fd_sc_hd__decap_3
XPHY_EDGE_ROW_19_Right_19 VGND VGND VPWR VPWR sky130_fd_sc_hd__decap_3
XFILLER_22_127 VGND VGND VPWR VPWR sky130_fd_sc_hd__decap_3
XTAP_TAPCELL_ROW_23_111 VGND VPWR sky130_fd_sc_hd__tapvpwrvgnd_1
XFILLER_3_39 VGND VGND VPWR VPWR sky130_fd_sc_hd__decap_3
XPHY_EDGE_ROW_19_Left_44 VGND VGND VPWR VPWR sky130_fd_sc_hd__decap_3
XTAP_TAPCELL_ROW_3_60 VGND VPWR sky130_fd_sc_hd__tapvpwrvgnd_1
XFILLER_8_120 VGND VGND VPWR VPWR sky130_fd_sc_hd__decap_3
XTAP_TAPCELL_ROW_20_103 VGND VPWR sky130_fd_sc_hd__tapvpwrvgnd_1
XFILLER_12_59 VGND VGND VPWR VPWR sky130_fd_sc_hd__decap_3
XFILLER_12_26 VGND VGND VPWR VPWR sky130_fd_sc_hd__fill_2
XFILLER_10_119 VGND VGND VPWR VPWR sky130_fd_sc_hd__decap_3
XFILLER_5_134 VGND VGND VPWR VPWR sky130_fd_sc_hd__decap_3
XFILLER_23_69 VGND VGND VPWR VPWR sky130_fd_sc_hd__decap_3
XFILLER_23_36 VGND VGND VPWR VPWR sky130_fd_sc_hd__decap_3
XPHY_EDGE_ROW_4_Left_29 VGND VGND VPWR VPWR sky130_fd_sc_hd__decap_3
XFILLER_0_29 VGND VGND VPWR VPWR sky130_fd_sc_hd__fill_2
XFILLER_3_6 VGND VGND VPWR VPWR sky130_fd_sc_hd__decap_3
XFILLER_9_27 VGND VGND VPWR VPWR sky130_fd_sc_hd__decap_3
XTAP_TAPCELL_ROW_0_50 VGND VPWR sky130_fd_sc_hd__tapvpwrvgnd_1
XFILLER_1_3 VGND VGND VPWR VPWR sky130_fd_sc_hd__decap_3
Xclkload1 clknet_2_2__leaf_clk_regs VGND VGND VPWR VPWR clkload1/Y sky130_fd_sc_hd__clkinv_2
X_169_ clknet_2_1__leaf_clk_regs _015_ net2 VGND VGND VPWR VPWR net31 sky130_fd_sc_hd__dfrtp_1
XFILLER_1_83 VGND VGND VPWR VPWR sky130_fd_sc_hd__decap_3
XFILLER_20_59 VGND VGND VPWR VPWR sky130_fd_sc_hd__decap_3
XFILLER_20_15 VGND VGND VPWR VPWR sky130_fd_sc_hd__decap_3
XFILLER_19_122 VGND VGND VPWR VPWR sky130_fd_sc_hd__decap_3
XFILLER_19_111 VGND VGND VPWR VPWR sky130_fd_sc_hd__fill_1
XFILLER_19_90 VGND VGND VPWR VPWR sky130_fd_sc_hd__decap_3
XFILLER_20_9 VGND VGND VPWR VPWR sky130_fd_sc_hd__decap_3
XPHY_EDGE_ROW_7_Left_32 VGND VGND VPWR VPWR sky130_fd_sc_hd__decap_3
Xoutput25 net29 VGND VGND VPWR VPWR dout[5] sky130_fd_sc_hd__clkbuf_1
Xoutput14 net18 VGND VGND VPWR VPWR dac_p[2] sky130_fd_sc_hd__clkbuf_1
XFILLER_22_139 VGND VGND VPWR VPWR sky130_fd_sc_hd__fill_1
XFILLER_22_106 VGND VGND VPWR VPWR sky130_fd_sc_hd__decap_3
XFILLER_7_71 VGND VGND VPWR VPWR sky130_fd_sc_hd__decap_3
XFILLER_3_29 VGND VGND VPWR VPWR sky130_fd_sc_hd__decap_3
XTAP_TAPCELL_ROW_3_61 VGND VPWR sky130_fd_sc_hd__tapvpwrvgnd_1
XFILLER_8_132 VGND VGND VPWR VPWR sky130_fd_sc_hd__decap_3
XTAP_TAPCELL_ROW_20_104 VGND VPWR sky130_fd_sc_hd__tapvpwrvgnd_1
XFILLER_12_38 VGND VGND VPWR VPWR sky130_fd_sc_hd__decap_3
XPHY_EDGE_ROW_20_Left_45 VGND VGND VPWR VPWR sky130_fd_sc_hd__decap_3
XFILLER_5_113 VGND VGND VPWR VPWR sky130_fd_sc_hd__decap_3
XFILLER_5_146 VGND VGND VPWR VPWR sky130_fd_sc_hd__fill_1
XFILLER_23_48 VGND VGND VPWR VPWR sky130_fd_sc_hd__decap_3
XFILLER_23_15 VGND VGND VPWR VPWR sky130_fd_sc_hd__decap_3
XFILLER_4_50 VGND VGND VPWR VPWR sky130_fd_sc_hd__decap_3
XFILLER_13_92 VGND VGND VPWR VPWR sky130_fd_sc_hd__decap_3
XTAP_TAPCELL_ROW_0_51 VGND VPWR sky130_fd_sc_hd__tapvpwrvgnd_1
XFILLER_18_15 VGND VGND VPWR VPWR sky130_fd_sc_hd__decap_3
Xclkload2 clknet_2_3__leaf_clk_regs VGND VGND VPWR VPWR clkload2/Y sky130_fd_sc_hd__inv_4
XFILLER_24_91 VGND VGND VPWR VPWR sky130_fd_sc_hd__decap_3
X_168_ clknet_2_1__leaf_clk_regs _014_ net12 VGND VGND VPWR VPWR net30 sky130_fd_sc_hd__dfrtp_1
X_099_ state\[2\] _054_ net26 VGND VGND VPWR VPWR _065_ sky130_fd_sc_hd__o21a_1
XFILLER_20_38 VGND VGND VPWR VPWR sky130_fd_sc_hd__decap_3
XFILLER_20_27 VGND VGND VPWR VPWR sky130_fd_sc_hd__fill_1
XFILLER_1_40 VGND VGND VPWR VPWR sky130_fd_sc_hd__fill_2
XFILLER_13_9 VGND VGND VPWR VPWR sky130_fd_sc_hd__decap_3
XFILLER_10_82 VGND VGND VPWR VPWR sky130_fd_sc_hd__fill_2
XFILLER_6_18 VGND VGND VPWR VPWR sky130_fd_sc_hd__decap_3
XFILLER_6_29 VGND VGND VPWR VPWR sky130_fd_sc_hd__decap_3
Xoutput26 net30 VGND VGND VPWR VPWR dout[6] sky130_fd_sc_hd__clkbuf_1
XFILLER_16_137 VGND VGND VPWR VPWR sky130_fd_sc_hd__decap_3
Xoutput15 net19 VGND VGND VPWR VPWR dac_p[3] sky130_fd_sc_hd__clkbuf_1
XPHY_EDGE_ROW_1_Right_1 VGND VGND VPWR VPWR sky130_fd_sc_hd__decap_3
XFILLER_22_118 VGND VGND VPWR VPWR sky130_fd_sc_hd__decap_3
XFILLER_21_81 VGND VGND VPWR VPWR sky130_fd_sc_hd__decap_3
XTAP_TAPCELL_ROW_16_92 VGND VPWR sky130_fd_sc_hd__tapvpwrvgnd_1
XFILLER_16_70 VGND VGND VPWR VPWR sky130_fd_sc_hd__decap_3
XFILLER_8_144 VGND VGND VPWR VPWR sky130_fd_sc_hd__decap_3
XFILLER_4_62 VGND VGND VPWR VPWR sky130_fd_sc_hd__decap_3
XFILLER_4_73 VGND VGND VPWR VPWR sky130_fd_sc_hd__decap_3
XFILLER_23_27 VGND VGND VPWR VPWR sky130_fd_sc_hd__decap_3
XFILLER_9_18 VGND VGND VPWR VPWR sky130_fd_sc_hd__decap_3
XFILLER_13_60 VGND VGND VPWR VPWR sky130_fd_sc_hd__fill_2
XTAP_TAPCELL_ROW_0_52 VGND VPWR sky130_fd_sc_hd__tapvpwrvgnd_1
XFILLER_18_38 VGND VGND VPWR VPWR sky130_fd_sc_hd__decap_3
XFILLER_18_27 VGND VGND VPWR VPWR sky130_fd_sc_hd__fill_1
XFILLER_24_81 VGND VGND VPWR VPWR sky130_fd_sc_hd__decap_3
X_167_ clknet_2_2__leaf_clk_regs _013_ net40 VGND VGND VPWR VPWR net7 sky130_fd_sc_hd__dfstp_1
X_098_ _063_ _064_ _062_ VGND VGND VPWR VPWR _001_ sky130_fd_sc_hd__o21a_1
XFILLER_1_74 VGND VGND VPWR VPWR sky130_fd_sc_hd__decap_3
XFILLER_1_52 VGND VGND VPWR VPWR sky130_fd_sc_hd__decap_3
XFILLER_19_113 VGND VGND VPWR VPWR sky130_fd_sc_hd__decap_3
XFILLER_19_102 VGND VGND VPWR VPWR sky130_fd_sc_hd__decap_3
XFILLER_10_94 VGND VGND VPWR VPWR sky130_fd_sc_hd__fill_1
XFILLER_10_72 VGND VGND VPWR VPWR sky130_fd_sc_hd__fill_1
XFILLER_19_81 VGND VGND VPWR VPWR sky130_fd_sc_hd__decap_3
Xoutput27 net31 VGND VGND VPWR VPWR dout[7] sky130_fd_sc_hd__clkbuf_1
XFILLER_15_39 VGND VGND VPWR VPWR sky130_fd_sc_hd__decap_3
Xoutput16 net20 VGND VGND VPWR VPWR dac_p[4] sky130_fd_sc_hd__clkbuf_1
Xclkbuf_0_clk clk VGND VGND VPWR VPWR clknet_0_clk sky130_fd_sc_hd__clkbuf_16
XFILLER_21_93 VGND VGND VPWR VPWR sky130_fd_sc_hd__decap_3
XFILLER_21_60 VGND VGND VPWR VPWR sky130_fd_sc_hd__decap_3
XPHY_EDGE_ROW_24_Right_24 VGND VGND VPWR VPWR sky130_fd_sc_hd__decap_3
XPHY_EDGE_ROW_15_Right_15 VGND VGND VPWR VPWR sky130_fd_sc_hd__decap_3
XTAP_TAPCELL_ROW_16_93 VGND VPWR sky130_fd_sc_hd__tapvpwrvgnd_1
XFILLER_12_141 VGND VGND VPWR VPWR sky130_fd_sc_hd__decap_3
XFILLER_8_123 VGND VGND VPWR VPWR sky130_fd_sc_hd__decap_3
XFILLER_12_29 VGND VGND VPWR VPWR sky130_fd_sc_hd__decap_3
XFILLER_5_137 VGND VGND VPWR VPWR sky130_fd_sc_hd__decap_3
XFILLER_4_41 VGND VGND VPWR VPWR sky130_fd_sc_hd__decap_3
XFILLER_23_39 VGND VGND VPWR VPWR sky130_fd_sc_hd__decap_3
XFILLER_3_9 VGND VGND VPWR VPWR sky130_fd_sc_hd__decap_3
XFILLER_13_50 VGND VGND VPWR VPWR sky130_fd_sc_hd__decap_3
XTAP_TAPCELL_ROW_0_53 VGND VPWR sky130_fd_sc_hd__tapvpwrvgnd_1
XFILLER_1_140 VGND VGND VPWR VPWR sky130_fd_sc_hd__decap_3
XFILLER_24_60 VGND VGND VPWR VPWR sky130_fd_sc_hd__decap_3
XFILLER_1_6 VGND VGND VPWR VPWR sky130_fd_sc_hd__decap_3
XFILLER_20_29 VGND VGND VPWR VPWR sky130_fd_sc_hd__decap_3
XFILLER_20_18 VGND VGND VPWR VPWR sky130_fd_sc_hd__decap_3
X_166_ clknet_2_1__leaf_clk_regs _012_ net12 VGND VGND VPWR VPWR net29 sky130_fd_sc_hd__dfrtp_1
XFILLER_1_86 VGND VGND VPWR VPWR sky130_fd_sc_hd__fill_2
X_097_ _000_ net24 VGND VGND VPWR VPWR _064_ sky130_fd_sc_hd__and2b_1
XFILLER_19_125 VGND VGND VPWR VPWR sky130_fd_sc_hd__decap_3
XFILLER_19_93 VGND VGND VPWR VPWR sky130_fd_sc_hd__decap_3
XFILLER_19_60 VGND VGND VPWR VPWR sky130_fd_sc_hd__decap_3
Xclkbuf_regs_0_clk clk VGND VGND VPWR VPWR clk_regs sky130_fd_sc_hd__clkbuf_16
X_149_ net33 _063_ _045_ VGND VGND VPWR VPWR _025_ sky130_fd_sc_hd__or3_1
Xoutput28 net32 VGND VGND VPWR VPWR eoc sky130_fd_sc_hd__clkbuf_1
Xoutput17 net21 VGND VGND VPWR VPWR dac_p[5] sky130_fd_sc_hd__clkbuf_1
XFILLER_21_72 VGND VGND VPWR VPWR sky130_fd_sc_hd__decap_3
XFILLER_22_109 VGND VGND VPWR VPWR sky130_fd_sc_hd__decap_3
XFILLER_7_30 VGND VGND VPWR VPWR sky130_fd_sc_hd__decap_3
XFILLER_7_74 VGND VGND VPWR VPWR sky130_fd_sc_hd__decap_3
XTAP_TAPCELL_ROW_16_94 VGND VPWR sky130_fd_sc_hd__tapvpwrvgnd_1
XFILLER_8_135 VGND VGND VPWR VPWR sky130_fd_sc_hd__decap_3
XFILLER_5_116 VGND VGND VPWR VPWR sky130_fd_sc_hd__fill_2
XFILLER_4_20 VGND VGND VPWR VPWR sky130_fd_sc_hd__decap_3
XFILLER_23_18 VGND VGND VPWR VPWR sky130_fd_sc_hd__decap_3
XFILLER_2_108 VGND VGND VPWR VPWR sky130_fd_sc_hd__fill_2
XFILLER_4_53 VGND VGND VPWR VPWR sky130_fd_sc_hd__decap_3
XPHY_EDGE_ROW_24_Left_49 VGND VGND VPWR VPWR sky130_fd_sc_hd__decap_3
XTAP_TAPCELL_ROW_0_54 VGND VPWR sky130_fd_sc_hd__tapvpwrvgnd_1
XFILLER_18_29 VGND VGND VPWR VPWR sky130_fd_sc_hd__decap_3
XFILLER_18_18 VGND VGND VPWR VPWR sky130_fd_sc_hd__decap_3
XFILLER_24_94 VGND VGND VPWR VPWR sky130_fd_sc_hd__decap_3
XFILLER_24_72 VGND VGND VPWR VPWR sky130_fd_sc_hd__decap_3
XFILLER_24_50 VGND VGND VPWR VPWR sky130_fd_sc_hd__decap_3
XFILLER_1_65 VGND VGND VPWR VPWR sky130_fd_sc_hd__decap_3
X_165_ clknet_2_2__leaf_clk_regs _011_ net11 VGND VGND VPWR VPWR net8 sky130_fd_sc_hd__dfstp_1
X_096_ net42 _000_ VGND VGND VPWR VPWR _063_ sky130_fd_sc_hd__and2_4
XFILLER_19_137 VGND VGND VPWR VPWR sky130_fd_sc_hd__decap_3
XFILLER_19_72 VGND VGND VPWR VPWR sky130_fd_sc_hd__decap_3
XFILLER_10_85 VGND VGND VPWR VPWR sky130_fd_sc_hd__decap_3
XFILLER_10_63 VGND VGND VPWR VPWR sky130_fd_sc_hd__decap_3
X_148_ _000_ net16 VGND VGND VPWR VPWR _045_ sky130_fd_sc_hd__and2b_1
X_079_ net35 net34 net46 VGND VGND VPWR VPWR :61.Y\[0\] sky130_fd_sc_hd__a21oi_1
Xoutput29 net38 VGND VGND VPWR VPWR phi_sample sky130_fd_sc_hd__clkbuf_1
XPHY_EDGE_ROW_11_Left_36 VGND VGND VPWR VPWR sky130_fd_sc_hd__decap_3
Xoutput18 net22 VGND VGND VPWR VPWR dac_p[6] sky130_fd_sc_hd__clkbuf_1
XFILLER_21_84 VGND VGND VPWR VPWR sky130_fd_sc_hd__decap_3
XFILLER_21_51 VGND VGND VPWR VPWR sky130_fd_sc_hd__decap_3
XFILLER_15_140 VGND VGND VPWR VPWR sky130_fd_sc_hd__decap_3
XPHY_EDGE_ROW_5_Right_5 VGND VGND VPWR VPWR sky130_fd_sc_hd__decap_3
XFILLER_4_32 VGND VGND VPWR VPWR sky130_fd_sc_hd__decap_3
XFILLER_4_65 VGND VGND VPWR VPWR sky130_fd_sc_hd__decap_3
XTAP_TAPCELL_ROW_13_85 VGND VPWR sky130_fd_sc_hd__tapvpwrvgnd_1
XFILLER_13_41 VGND VGND VPWR VPWR sky130_fd_sc_hd__decap_3
XFILLER_1_131 VGND VGND VPWR VPWR sky130_fd_sc_hd__decap_3
XTAP_TAPCELL_ROW_9_75 VGND VPWR sky130_fd_sc_hd__tapvpwrvgnd_1
X_164_ clknet_2_1__leaf_clk_regs _000_ net2 VGND VGND VPWR VPWR net32 sky130_fd_sc_hd__dfrtp_1
XFILLER_1_77 VGND VGND VPWR VPWR sky130_fd_sc_hd__decap_3
XFILLER_1_55 VGND VGND VPWR VPWR sky130_fd_sc_hd__fill_1
X_095_ net37 _061_ VGND VGND VPWR VPWR _062_ sky130_fd_sc_hd__or2_4
XFILLER_19_116 VGND VGND VPWR VPWR sky130_fd_sc_hd__decap_3
XFILLER_19_105 VGND VGND VPWR VPWR sky130_fd_sc_hd__decap_3
XFILLER_19_84 VGND VGND VPWR VPWR sky130_fd_sc_hd__decap_3
XFILLER_18_3 VGND VGND VPWR VPWR sky130_fd_sc_hd__decap_3
X_078_ state\[0\] net35 net34 net36 VGND VGND VPWR VPWR _000_ sky130_fd_sc_hd__and4bb_4
X_147_ net33 _067_ _044_ VGND VGND VPWR VPWR _024_ sky130_fd_sc_hd__or3_1
XFILLER_24_141 VGND VGND VPWR VPWR sky130_fd_sc_hd__decap_3
XFILLER_21_96 VGND VGND VPWR VPWR sky130_fd_sc_hd__decap_3
XFILLER_21_63 VGND VGND VPWR VPWR sky130_fd_sc_hd__decap_3
XFILLER_21_30 VGND VGND VPWR VPWR sky130_fd_sc_hd__decap_3
Xoutput19 net23 VGND VGND VPWR VPWR dac_p[7] sky130_fd_sc_hd__clkbuf_1
XFILLER_21_122 VGND VGND VPWR VPWR sky130_fd_sc_hd__decap_3
XFILLER_21_111 VGND VGND VPWR VPWR sky130_fd_sc_hd__fill_1
XPHY_EDGE_ROW_20_Right_20 VGND VGND VPWR VPWR sky130_fd_sc_hd__decap_3
XFILLER_16_41 VGND VGND VPWR VPWR sky130_fd_sc_hd__decap_3
XFILLER_12_111 VGND VGND VPWR VPWR sky130_fd_sc_hd__decap_3
XPHY_EDGE_ROW_11_Right_11 VGND VGND VPWR VPWR sky130_fd_sc_hd__decap_3
XFILLER_8_126 VGND VGND VPWR VPWR sky130_fd_sc_hd__decap_3
XFILLER_4_44 VGND VGND VPWR VPWR sky130_fd_sc_hd__decap_3
XTAP_TAPCELL_ROW_13_86 VGND VPWR sky130_fd_sc_hd__tapvpwrvgnd_1
XFILLER_13_53 VGND VGND VPWR VPWR sky130_fd_sc_hd__decap_3
Xfanout10 net11 VGND VGND VPWR VPWR net10 sky130_fd_sc_hd__clkbuf_1
XFILLER_1_143 VGND VGND VPWR VPWR sky130_fd_sc_hd__fill_1
XTAP_TAPCELL_ROW_9_76 VGND VPWR sky130_fd_sc_hd__tapvpwrvgnd_1
XFILLER_1_9 VGND VGND VPWR VPWR sky130_fd_sc_hd__decap_3
XFILLER_24_85 VGND VGND VPWR VPWR sky130_fd_sc_hd__decap_3
XFILLER_24_63 VGND VGND VPWR VPWR sky130_fd_sc_hd__decap_3
XFILLER_24_41 VGND VGND VPWR VPWR sky130_fd_sc_hd__decap_3
X_163_ clknet_2_3__leaf_clk_regs _010_ net11 VGND VGND VPWR VPWR net15 sky130_fd_sc_hd__dfstp_1
XFILLER_1_12 VGND VGND VPWR VPWR sky130_fd_sc_hd__decap_3
X_094_ state\[1\] state\[2\] state\[3\] VGND VGND VPWR VPWR _061_ sky130_fd_sc_hd__or3_4
XFILLER_19_128 VGND VGND VPWR VPWR sky130_fd_sc_hd__decap_3
XFILLER_19_96 VGND VGND VPWR VPWR sky130_fd_sc_hd__decap_3
XFILLER_19_63 VGND VGND VPWR VPWR sky130_fd_sc_hd__decap_3
XFILLER_19_30 VGND VGND VPWR VPWR sky130_fd_sc_hd__decap_3
XFILLER_10_76 VGND VGND VPWR VPWR sky130_fd_sc_hd__decap_3
XFILLER_10_32 VGND VGND VPWR VPWR sky130_fd_sc_hd__decap_3
X_146_ _046_ state\[1\] _050_ net17 VGND VGND VPWR VPWR _044_ sky130_fd_sc_hd__o31a_1
X_077_ state\[2\] state\[3\] VGND VGND VPWR VPWR _050_ sky130_fd_sc_hd__nand2b_2
XFILLER_24_131 VGND VGND VPWR VPWR sky130_fd_sc_hd__decap_3
XFILLER_21_75 VGND VGND VPWR VPWR sky130_fd_sc_hd__decap_3
XFILLER_21_42 VGND VGND VPWR VPWR sky130_fd_sc_hd__decap_3
XFILLER_15_131 VGND VGND VPWR VPWR sky130_fd_sc_hd__decap_3
XFILLER_7_33 VGND VGND VPWR VPWR sky130_fd_sc_hd__fill_2
XFILLER_7_77 VGND VGND VPWR VPWR sky130_fd_sc_hd__decap_3
X_129_ _060_ _037_ VGND VGND VPWR VPWR _013_ sky130_fd_sc_hd__or2_1
XFILLER_16_64 VGND VGND VPWR VPWR sky130_fd_sc_hd__decap_3
XFILLER_8_138 VGND VGND VPWR VPWR sky130_fd_sc_hd__fill_2
XFILLER_4_12 VGND VGND VPWR VPWR sky130_fd_sc_hd__fill_2
XFILLER_4_23 VGND VGND VPWR VPWR sky130_fd_sc_hd__decap_3
XFILLER_4_56 VGND VGND VPWR VPWR sky130_fd_sc_hd__decap_3
XFILLER_4_141 VGND VGND VPWR VPWR sky130_fd_sc_hd__decap_3