*SPEF "ieee 1481-1999"
*DESIGN "sar_controller"
*DATE "13:09:12 Friday May 15, 2026"
*VENDOR "The OpenROAD Project"
*PROGRAM "OpenROAD"
*VERSION "v2.0-23079-g93b6f40ec"
*DESIGN_FLOW "NAME_SCOPE LOCAL" "PIN_CAP NONE"
*DIVIDER /
*DELIMITER :
*BUS_DELIMITER []
*T_UNIT 1 NS
*C_UNIT 1 PF
*R_UNIT 1 OHM
*L_UNIT 1 HENRY

*NAME_MAP
*3 clk
*4 clk_comp
*5 dac_n[0]
*6 dac_n[1]
*7 dac_n[2]
*8 dac_n[3]
*9 dac_n[4]
*10 dac_n[5]
*11 dac_n[6]
*12 dac_n[7]
*13 dac_p[0]
*14 dac_p[1]
*15 dac_p[2]
*16 dac_p[3]
*17 dac_p[4]
*18 dac_p[5]
*19 dac_p[6]
*20 dac_p[7]
*21 dout[0]
*22 dout[1]
*23 dout[2]
*24 dout[3]
*25 dout[4]
*26 dout[5]
*27 dout[6]
*28 dout[7]
*29 eoc
*30 out_comp_n
*31 out_comp_p
*32 phi_sample
*33 phi_sample_n
*34 rst_n
*35 \:61\.Y\[0\]
*36 \:61\.Y\[1\]
*37 \:61\.Y\[2\]
*38 \:61\.Y\[3\]
*39 _000_
*40 _001_
*41 _002_
*42 _003_
*43 _004_
*44 _005_
*45 _006_
*46 _007_
*47 _008_
*48 _009_
*49 _010_
*50 _011_
*51 _012_
*52 _013_
*53 _014_
*54 _015_
*55 _016_
*56 _017_
*57 _018_
*58 _019_
*59 _020_
*60 _021_
*61 _022_
*62 _023_
*63 _024_
*64 _025_
*65 _026_
*66 _027_
*67 _028_
*68 _029_
*69 _030_
*70 _031_
*71 _032_
*72 _033_
*73 _034_
*74 _035_
*75 _036_
*76 _037_
*77 _038_
*78 _039_
*79 _040_
*80 _041_
*81 _042_
*82 _043_
*83 _044_
*84 _045_
*85 _046_
*86 _047_
*87 _048_
*88 _049_
*89 _050_
*90 _051_
*91 _052_
*92 _053_
*93 _054_
*94 _055_
*95 _056_
*96 _057_
*97 _058_
*98 _059_
*99 _060_
*100 _061_
*101 _062_
*102 _063_
*103 _064_
*104 _065_
*105 _066_
*106 _067_
*107 _068_
*108 _069_
*109 _070_
*110 _071_
*111 clk_regs
*112 clknet_0_clk
*113 clknet_0_clk_regs
*114 clknet_1_0__leaf_clk
*115 clknet_2_0__leaf_clk_regs
*116 clknet_2_1__leaf_clk_regs
*117 clknet_2_2__leaf_clk_regs
*118 clknet_2_3__leaf_clk_regs
*119 net1
*120 net10
*121 net11
*122 net12
*123 net13
*124 net14
*125 net15
*126 net16
*127 net17
*128 net18
*129 net19
*130 net2
*131 net20
*132 net21
*133 net22
*134 net23
*135 net24
*136 net25
*137 net26
*138 net27
*139 net28
*140 net29
*141 net3
*142 net30
*143 net31
*144 net32
*145 net33
*146 net34
*147 net35
*148 net36
*149 net37
*150 net38
*151 net39
*152 net4
*153 net40
*154 net41
*155 net42
*156 net43
*157 net45
*158 net46
*159 net47
*160 net48
*161 net49
*162 net5
*163 net50
*164 net51
*165 net52
*166 net6
*167 net7
*168 net8
*169 net9
*170 state\[0\]
*171 state\[1\]
*172 state\[2\]
*173 state\[3\]
*174 FILLER_0_107
*175 FILLER_0_3
*176 FILLER_0_39
*177 FILLER_0_51
*178 FILLER_0_55
*179 FILLER_0_57
*180 FILLER_0_63
*181 FILLER_0_85
*182 FILLER_10_23
*183 FILLER_10_26
*184 FILLER_10_50
*185 FILLER_10_83
*186 FILLER_10_85
*187 FILLER_11_14
*188 FILLER_11_17
*189 FILLER_11_20
*190 FILLER_11_23
*191 FILLER_11_3
*192 FILLER_11_6
*193 FILLER_11_84
*194 FILLER_12_14
*195 FILLER_12_24
*196 FILLER_12_27
*197 FILLER_12_29
*198 FILLER_12_32
*199 FILLER_12_35
*200 FILLER_12_38
*201 FILLER_12_41
*202 FILLER_12_44
*203 FILLER_12_6
*204 FILLER_12_88
*205 FILLER_12_98
*206 FILLER_13_23
*207 FILLER_13_26
*208 FILLER_13_32
*209 FILLER_13_55
*210 FILLER_13_57
*211 FILLER_13_60
*212 FILLER_14_12
*213 FILLER_14_3
*214 FILLER_14_49
*215 FILLER_14_6
*216 FILLER_14_9
*217 FILLER_15_40
*218 FILLER_15_55
*219 FILLER_15_9
*220 FILLER_16_29
*221 FILLER_16_32
*222 FILLER_16_35
*223 FILLER_16_38
*224 FILLER_16_45
*225 FILLER_16_6
*226 FILLER_16_73
*227 FILLER_17_27
*228 FILLER_17_29
*229 FILLER_17_32
*230 FILLER_17_35
*231 FILLER_17_38
*232 FILLER_17_41
*233 FILLER_17_44
*234 FILLER_17_47
*235 FILLER_17_50
*236 FILLER_17_53
*237 FILLER_17_57
*238 FILLER_17_69
*239 FILLER_17_72
*240 FILLER_17_79
*241 FILLER_1_106
*242 FILLER_1_3
*243 FILLER_1_60
*244 FILLER_1_7
*245 FILLER_2_106
*246 FILLER_2_15
*247 FILLER_2_29
*248 FILLER_2_32
*249 FILLER_2_35
*250 FILLER_2_38
*251 FILLER_2_75
*252 FILLER_2_78
*253 FILLER_3_103
*254 FILLER_3_28
*255 FILLER_3_31
*256 FILLER_3_34
*257 FILLER_3_57
*258 FILLER_3_6
*259 FILLER_3_70
*260 FILLER_3_73
*261 FILLER_3_76
*262 FILLER_3_84
*263 FILLER_3_99
*264 FILLER_4_21
*265 FILLER_4_24
*266 FILLER_4_27
*267 FILLER_4_3
*268 FILLER_4_36
*269 FILLER_4_39
*270 FILLER_4_42
*271 FILLER_4_53
*272 FILLER_4_56
*273 FILLER_4_60
*274 FILLER_4_63
*275 FILLER_4_66
*276 FILLER_4_69
*277 FILLER_4_74
*278 FILLER_4_85
*279 FILLER_5_107
*280 FILLER_5_48
*281 FILLER_5_55
*282 FILLER_5_57
*283 FILLER_5_60
*284 FILLER_6_101
*285 FILLER_6_104
*286 FILLER_6_16
*287 FILLER_6_19
*288 FILLER_6_22
*289 FILLER_6_25
*290 FILLER_6_29
*291 FILLER_6_32
*292 FILLER_6_6
*293 FILLER_6_9
*294 FILLER_6_98
*295 FILLER_7_102
*296 FILLER_7_23
*297 FILLER_7_3
*298 FILLER_7_46
*299 FILLER_7_57
*300 FILLER_7_6
*301 FILLER_7_99
*302 FILLER_8_23
*303 FILLER_8_26
*304 FILLER_8_29
*305 FILLER_8_32
*306 FILLER_8_82
*307 FILLER_9_106
*308 FILLER_9_12
*309 FILLER_9_24
*310 FILLER_9_27
*311 FILLER_9_30
*312 FILLER_9_33
*313 FILLER_9_41
*314 FILLER_9_55
*315 FILLER_9_6
*316 FILLER_9_64
*317 FILLER_9_76
*318 FILLER_9_88
*319 FILLER_9_9
*320 FILLER_9_91
*321 PHY_EDGE_ROW_0_Left_18
*322 PHY_EDGE_ROW_0_Right_0
*323 PHY_EDGE_ROW_10_Left_28
*324 PHY_EDGE_ROW_10_Right_10
*325 PHY_EDGE_ROW_11_Left_29
*326 PHY_EDGE_ROW_11_Right_11
*327 PHY_EDGE_ROW_12_Left_30
*328 PHY_EDGE_ROW_12_Right_12
*329 PHY_EDGE_ROW_13_Left_31
*330 PHY_EDGE_ROW_13_Right_13
*331 PHY_EDGE_ROW_14_Left_32
*332 PHY_EDGE_ROW_14_Right_14
*333 PHY_EDGE_ROW_15_Left_33
*334 PHY_EDGE_ROW_15_Right_15
*335 PHY_EDGE_ROW_16_Left_34
*336 PHY_EDGE_ROW_16_Right_16
*337 PHY_EDGE_ROW_17_Left_35
*338 PHY_EDGE_ROW_17_Right_17
*339 PHY_EDGE_ROW_1_Left_19
*340 PHY_EDGE_ROW_1_Right_1
*341 PHY_EDGE_ROW_2_Left_20
*342 PHY_EDGE_ROW_2_Right_2
*343 PHY_EDGE_ROW_3_Left_21
*344 PHY_EDGE_ROW_3_Right_3
*345 PHY_EDGE_ROW_4_Left_22
*346 PHY_EDGE_ROW_4_Right_4
*347 PHY_EDGE_ROW_5_Left_23
*348 PHY_EDGE_ROW_5_Right_5
*349 PHY_EDGE_ROW_6_Left_24
*350 PHY_EDGE_ROW_6_Right_6
*351 PHY_EDGE_ROW_7_Left_25
*352 PHY_EDGE_ROW_7_Right_7
*353 PHY_EDGE_ROW_8_Left_26
*354 PHY_EDGE_ROW_8_Right_8
*355 PHY_EDGE_ROW_9_Left_27
*356 PHY_EDGE_ROW_9_Right_9
*357 TAP_TAPCELL_ROW_0_36
*358 TAP_TAPCELL_ROW_0_37
*359 TAP_TAPCELL_ROW_0_38
*360 TAP_TAPCELL_ROW_10_52
*361 TAP_TAPCELL_ROW_10_53
*362 TAP_TAPCELL_ROW_11_54
*363 TAP_TAPCELL_ROW_12_55
*364 TAP_TAPCELL_ROW_12_56
*365 TAP_TAPCELL_ROW_13_57
*366 TAP_TAPCELL_ROW_14_58
*367 TAP_TAPCELL_ROW_14_59
*368 TAP_TAPCELL_ROW_15_60
*369 TAP_TAPCELL_ROW_16_61
*370 TAP_TAPCELL_ROW_16_62
*371 TAP_TAPCELL_ROW_17_63
*372 TAP_TAPCELL_ROW_17_64
*373 TAP_TAPCELL_ROW_17_65
*374 TAP_TAPCELL_ROW_1_39
*375 TAP_TAPCELL_ROW_2_40
*376 TAP_TAPCELL_ROW_2_41
*377 TAP_TAPCELL_ROW_3_42
*378 TAP_TAPCELL_ROW_4_43
*379 TAP_TAPCELL_ROW_4_44
*380 TAP_TAPCELL_ROW_5_45
*381 TAP_TAPCELL_ROW_6_46
*382 TAP_TAPCELL_ROW_6_47
*383 TAP_TAPCELL_ROW_7_48
*384 TAP_TAPCELL_ROW_8_49
*385 TAP_TAPCELL_ROW_8_50
*386 TAP_TAPCELL_ROW_9_51
*387 _072_
*388 _073_
*389 _074_
*390 _075_
*391 _076_
*392 _077_
*393 _078_
*394 _079_
*395 _080_
*396 _081_
*397 _082_
*398 _083_
*399 _084_
*400 _085_
*401 _086_
*402 _087_
*403 _088_
*404 _089_
*405 _090_
*406 _091_
*407 _092_
*408 _093_
*409 _094_
*410 _095_
*411 _096_
*412 _097_
*413 _098_
*414 _099_
*415 _100_
*416 _101_
*417 _102_
*418 _103_
*419 _104_
*420 _105_
*421 _106_
*422 _107_
*423 _108_
*424 _109_
*425 _110_
*426 _111_
*427 _112_
*428 _113_
*429 _114_
*430 _115_
*431 _116_
*432 _117_
*433 _118_
*434 _119_
*435 _120_
*436 _121_
*437 _122_
*438 _123_
*439 _124_
*440 _125_
*441 _126_
*442 _127_
*443 _128_
*444 _129_
*445 _130_
*446 _131_
*447 _132_
*448 _133_
*449 _134_
*450 _135_
*451 _136_
*452 _137_
*453 _138_
*454 _139_
*455 _140_
*456 _141_
*457 _142_
*458 _143_
*459 _144_
*460 _145_
*461 _146_
*462 _147_
*463 _148_
*464 _149_
*465 _150_
*466 _151_
*467 _152_
*468 _153_
*469 _154_
*470 _155_
*471 _156_
*472 _157_
*473 _158_
*474 _159_
*475 _160_
*476 _161_
*477 _162_
*478 _163_
*479 _164_
*480 _165_
*481 _166_
*482 _167_
*483 _168_
*484 _169_
*485 _170_
*486 _171_
*487 _172_
*488 _173_
*489 _174_
*490 _175_
*491 _176_
*492 _177_
*493 _178_
*494 _179_
*495 clkbuf_0_clk
*496 clkbuf_0_clk_regs
*497 clkbuf_1_0__f_clk
*498 clkbuf_2_0__f_clk_regs
*499 clkbuf_2_1__f_clk_regs
*500 clkbuf_2_2__f_clk_regs
*501 clkbuf_2_3__f_clk_regs
*502 clkbuf_regs_0_clk
*503 clkload0
*504 clkload1
*505 clkload2
*506 fanout12
*507 hold1
*508 hold10
*509 hold2
*510 hold3
*511 hold4
*512 hold5
*513 hold6
*514 hold7
*515 hold8
*516 hold9
*517 input1
*518 max_cap30
*519 max_cap31
*520 max_cap32
*521 output10
*522 output11
*523 output12
*524 output13
*525 output14
*526 output15
*527 output16
*528 output17
*529 output18
*530 output19
*531 output2
*532 output20
*533 output21
*534 output22
*535 output23
*536 output24
*537 output25
*538 output26
*539 output27
*540 output28
*541 output29
*542 output3
*543 output4
*544 output5
*545 output6
*546 output7
*547 output8
*548 output9
*549 place45
*550 place46
*551 place47
*552 place48
*553 place49
*554 place50
*555 place51
*556 place52

*PORTS
clk I
clk_comp O
dac_n[0] O
dac_n[1] O
dac_n[2] O
dac_n[3] O
dac_n[4] O
dac_n[5] O
dac_n[6] O
dac_n[7] O
dac_p[0] O
dac_p[1] O
dac_p[2] O
dac_p[3] O
dac_p[4] O
dac_p[5] O
dac_p[6] O
dac_p[7] O
dout[0] O
dout[1] O
dout[2] O
dout[3] O
dout[4] O
dout[5] O
dout[6] O
dout[7] O
eoc O
out_comp_n I
out_comp_p I
phi_sample O
phi_sample_n O
rst_n I

*D_NET *3 0.00761682
*CONN
*P clk I
*I *495:A I *D sky130_fd_sc_hd__clkbuf_16
*I *502:A I *D sky130_fd_sc_hd__clkbuf_16
*CAP
1 clk 0.00158837
2 *495:A 0.00035866
3 *502:A 0.000588342
4 *3:15 0.00253537
5 *495:A *473:CLK 4.41506e-05
6 *495:A *473:RESET_B 0.000171692
7 *495:A *506:A 4.99619e-05
8 *495:A *122:10 4.82863e-05
9 *502:A *395:A 6.27583e-05
10 *502:A *404:B1 0.000464138
11 *502:A *437:A 2.23485e-05
12 *502:A *437:B 0.000223786
13 *502:A *438:A2 0
14 *502:A *473:CLK 0.000164679
15 *502:A *65:35 0
16 *502:A *106:10 0.000204782
17 *502:A *106:39 4.21314e-05
18 *502:A *113:10 0
19 *502:A *118:10 0.00011852
20 *502:A *119:36 0.00065476
21 *502:A *158:74 0
22 *502:A *160:12 9.82856e-06
23 *502:A *160:14 0
24 *502:A *160:16 0
25 *3:15 *399:B 0
26 *3:15 *404:B1 0.000220452
27 *3:15 *473:CLK 4.38051e-05
28 *3:15 *158:87 0
*RES
1 clk *3:15 32.11 
2 *3:15 *502:A 19.77 
3 *3:15 *495:A 9.915 
*END

*D_NET *4 0.00168358
*CONN
*P clk_comp O
*I *531:X O *D sky130_fd_sc_hd__buf_1
*CAP
1 clk_comp 0.000718226
2 *531:X 0.000718226
3 clk_comp *506:A 0.000247125
*RES
1 *531:X clk_comp 8.62037 
*END

*D_NET *5 0.000751264
*CONN
*P dac_n[0] O
*I *542:X O *D sky130_fd_sc_hd__clkbuf_1
*CAP
1 dac_n[0] 0.000375632
2 *542:X 0.000375632
3 dac_n[0] dac_n[1] 0
4 dac_n[0] dac_p[7] 0
*RES
1 *542:X dac_n[0] 9.84 
*END

*D_NET *6 0.000751287
*CONN
*P dac_n[1] O
*I *543:X O *D sky130_fd_sc_hd__clkbuf_1
*CAP
1 dac_n[1] 0.000375644
2 *543:X 0.000375644
3 dac_n[1] dac_n[2] 0
4 dac_n[0] dac_n[1] 0
*RES
1 *543:X dac_n[1] 9.84 
*END

*D_NET *7 0.000949645
*CONN
*P dac_n[2] O
*I *544:X O *D sky130_fd_sc_hd__clkbuf_1
*CAP
1 dac_n[2] 0.000412372
2 *544:X 0.000412372
3 dac_n[2] dac_n[3] 0
4 dac_n[2] *443:A0 0.0001249
5 dac_n[1] dac_n[2] 0
*RES
1 *544:X dac_n[2] 10.53 
*END

*D_NET *8 0.000659347
*CONN
*P dac_n[3] O
*I *545:X O *D sky130_fd_sc_hd__clkbuf_1
*CAP
1 dac_n[3] 0.000329673
2 *545:X 0.000329673
3 dac_n[3] dac_n[4] 0
4 dac_n[2] dac_n[3] 0
*RES
1 *545:X dac_n[3] 9.39 
*END

*D_NET *9 0.00168174
*CONN
*P dac_n[4] O
*I *546:X O *D sky130_fd_sc_hd__clkbuf_1
*CAP
1 dac_n[4] 0.000761469
2 *546:X 0.000761469
3 dac_n[4] dac_n[5] 0
4 dac_n[4] *439:A1 3.30639e-05
5 dac_n[4] *469:D 6.55406e-05
6 dac_n[4] *480:SET_B 4.40889e-05
7 dac_n[4] *546:A 1.61078e-05
8 dac_n[4] *166:12 0
9 dac_n[3] dac_n[4] 0
*RES
1 *546:X dac_n[4] 16.14 
*END

*D_NET *10 0.00180779
*CONN
*P dac_n[5] O
*I *547:X O *D sky130_fd_sc_hd__clkbuf_1
*CAP
1 dac_n[5] 0.000604609
2 *547:X 0.000604609
3 dac_n[5] dac_n[6] 0
4 dac_n[5] *432:A0 0.000136884
5 dac_n[5] *432:A1 1.1392e-05
6 dac_n[5] *439:A1 2.46089e-05
7 dac_n[5] *469:D 0
8 dac_n[5] *469:SET_B 0.000254644
9 dac_n[5] *144:14 2.94708e-05
10 dac_n[5] *144:18 6.92175e-05
11 dac_n[5] *165:44 7.23533e-05
12 dac_n[4] dac_n[5] 0
*RES
1 *547:X dac_n[5] 15.96 
*END

*D_NET *11 0.00184033
*CONN
*P dac_n[6] O
*I *548:X O *D sky130_fd_sc_hd__clkbuf_1
*CAP
1 dac_n[6] 0.000549798
2 *548:X 0.000549798
3 dac_n[6] dac_n[7] 0
4 dac_n[6] *469:SET_B 0
5 dac_n[6] *517:A 0.000740732
6 dac_n[6] *547:A 0
7 dac_n[6] *168:10 0
8 dac_n[5] dac_n[6] 0
*RES
1 *548:X dac_n[6] 15.51 
*END

*D_NET *12 0.00232266
*CONN
*P dac_n[7] O
*I *521:X O *D sky130_fd_sc_hd__clkbuf_1
*CAP
1 dac_n[7] 0.00116133
2 *521:X 0.00116133
3 dac_n[7] *517:A 0
4 dac_n[6] dac_n[7] 0
*RES
1 *521:X dac_n[7] 22.8 
*END

*D_NET *13 0.00184448
*CONN
*P dac_p[0] O
*I *522:X O *D sky130_fd_sc_hd__clkbuf_1
*CAP
1 dac_p[0] 0.00064629
2 *522:X 0.00064629
3 dac_p[0] dout[0] 0.000508436
4 dac_p[0] dout[2] 1.34253e-05
5 dac_p[0] *532:A 3.00381e-05
*RES
1 *522:X dac_p[0] 18.39 
*END

*D_NET *14 0.00119322
*CONN
*P dac_p[1] O
*I *523:X O *D sky130_fd_sc_hd__clkbuf_1
*CAP
1 dac_p[1] 0.000468696
2 *523:X 0.000468696
3 dac_p[1] dac_p[2] 0
4 dac_p[1] dout[0] 0
5 dac_p[1] dout[1] 4.36738e-05
6 dac_p[1] *491:CLK 0.000118513
7 dac_p[1] *491:D 4.70256e-05
8 dac_p[1] *523:A 4.66108e-05
*RES
1 *523:X dac_p[1] 12.78 
*END

*D_NET *15 0.00148038
*CONN
*P dac_p[2] O
*I *524:X O *D sky130_fd_sc_hd__clkbuf_1
*CAP
1 dac_p[2] 0.000517017
2 *524:X 0.000517017
3 dac_p[2] dac_p[3] 0
4 dac_p[2] *458:B 5.02217e-05
5 dac_p[2] *464:A 9.54469e-05
6 dac_p[2] *491:SET_B 9.62187e-05
7 dac_p[2] *157:73 0.000204463
8 dac_p[1] dac_p[2] 0
*RES
1 *524:X dac_p[2] 13.92 
*END

*D_NET *16 0.00182811
*CONN
*P dac_p[3] O
*I *525:X O *D sky130_fd_sc_hd__clkbuf_1
*CAP
1 dac_p[3] 0.000719788
2 *525:X 0.000719788
3 dac_p[3] dac_p[4] 0
4 dac_p[3] *457:S 4.82863e-05
5 dac_p[3] *490:D 0.000116158
6 dac_p[3] *491:SET_B 0
7 dac_p[3] *524:A 0.000110107
8 dac_p[3] *115:44 0.00011398
9 dac_p[3] *125:12 0
10 dac_p[2] dac_p[3] 0
*RES
1 *525:X dac_p[3] 16.665 
*END

*D_NET *17 0.000656106
*CONN
*P dac_p[4] O
*I *526:X O *D sky130_fd_sc_hd__clkbuf_1
*CAP
1 dac_p[4] 0.000328053
2 *526:X 0.000328053
3 dac_p[4] dac_p[5] 0
4 dac_p[3] dac_p[4] 0
*RES
1 *526:X dac_p[4] 9.39 
*END

*D_NET *18 0.00077703
*CONN
*P dac_p[5] O
*I *527:X O *D sky130_fd_sc_hd__clkbuf_1
*CAP
1 dac_p[5] 0.000364627
2 *527:X 0.000364627
3 dac_p[5] dac_p[6] 0
4 dac_p[5] *157:63 3.68999e-05
5 dac_p[5] *157:73 1.08758e-05
6 dac_p[4] dac_p[5] 0
*RES
1 *527:X dac_p[5] 9.84 
*END

*D_NET *19 0.0010288
*CONN
*P dac_p[6] O
*I *528:X O *D sky130_fd_sc_hd__clkbuf_1
*CAP
1 dac_p[6] 0.000459585
2 *528:X 0.000459585
3 dac_p[6] dac_p[7] 0
4 dac_p[6] *157:59 2.30292e-05
5 dac_p[6] *157:63 8.65961e-05
6 dac_p[5] dac_p[6] 0
*RES
1 *528:X dac_p[6] 11.43 
*END

*D_NET *20 0.00075359
*CONN
*P dac_p[7] O
*I *529:X O *D sky130_fd_sc_hd__clkbuf_1
*CAP
1 dac_p[7] 0.00037497
2 *529:X 0.00037497
3 dac_p[7] *157:59 3.64998e-06
4 dac_n[0] dac_p[7] 0
5 dac_p[6] dac_p[7] 0
*RES
1 *529:X dac_p[7] 9.84 
*END

*D_NET *21 0.00209169
*CONN
*P dout[0] O
*I *530:X O *D sky130_fd_sc_hd__clkbuf_1
*CAP
1 dout[0] 0.000747497
2 *530:X 0.000747497
3 dout[0] dout[1] 0
4 dout[0] *532:A 8.8266e-05
5 dac_p[0] dout[0] 0.000508436
6 dac_p[1] dout[0] 0
*RES
1 *530:X dout[0] 19.2704 
*END

*D_NET *22 0.00108947
*CONN
*P dout[1] O
*I *532:X O *D sky130_fd_sc_hd__clkbuf_1
*CAP
1 dout[1] 0.000440903
2 *532:X 0.000440903
3 dout[1] *464:A 0
4 dout[1] *491:CLK 0.000163992
5 dout[1] *157:73 0
6 dac_p[1] dout[1] 4.36738e-05
7 dout[0] dout[1] 0
*RES
1 *532:X dout[1] 8.92677 
*END

*D_NET *23 0.000562037
*CONN
*P dout[2] O
*I *533:X O *D sky130_fd_sc_hd__clkbuf_1
*CAP
1 dout[2] 0.000274306
2 *533:X 0.000274306
3 dac_p[0] dout[2] 1.34253e-05
*RES
1 *533:X dout[2] 6.8343 
*END

*D_NET *24 0.000440157
*CONN
*P dout[3] O
*I *534:X O *D sky130_fd_sc_hd__clkbuf_1
*CAP
1 dout[3] 0.000220079
2 *534:X 0.000220079
*RES
1 *534:X dout[3] 4.84677 
*END

*D_NET *25 0.000549881
*CONN
*P dout[4] O
*I *535:X O *D sky130_fd_sc_hd__clkbuf_1
*CAP
1 dout[4] 0.000274941
2 *535:X 0.000274941
3 dout[4] dout[5] 0
*RES
1 *535:X dout[4] 6.8343 
*END

*D_NET *26 0.000671949
*CONN
*P dout[5] O
*I *536:X O *D sky130_fd_sc_hd__clkbuf_1
*CAP
1 dout[5] 0.000335975
2 *536:X 0.000335975
3 dout[4] dout[5] 0
*RES
1 *536:X dout[5] 7.3443 
*END

*D_NET *27 0.000553515
*CONN
*P dout[6] O
*I *537:X O *D sky130_fd_sc_hd__clkbuf_1
*CAP
1 dout[6] 0.0002614
2 *537:X 0.0002614
3 dout[6] eoc 3.07153e-05
*RES
1 *537:X dout[6] 6.8343 
*END

*D_NET *28 0.00093627
*CONN
*P dout[7] O
*I *538:X O *D sky130_fd_sc_hd__clkbuf_1
*CAP
1 dout[7] 0.000347844
2 *538:X 0.000347844
3 dout[7] eoc 0.000240582
4 dout[7] *143:21 0
*RES
1 *538:X dout[7] 7.7885 
*END

*D_NET *29 0.00213601
*CONN
*P eoc O
*I *539:X O *D sky130_fd_sc_hd__clkbuf_1
*CAP
1 eoc 0.000923662
2 *539:X 0.000923662
3 eoc *537:A 1.7386e-05
4 eoc *143:21 0
5 dout[6] eoc 3.07153e-05
6 dout[7] eoc 0.000240582
*RES
1 *539:X eoc 17.8835 
*END

*D_NET *31 0.00264128
*CONN
*P out_comp_p I
*I *517:A I *D sky130_fd_sc_hd__clkbuf_1
*CAP
1 out_comp_p 0.000928234
2 *517:A 0.000928234
3 *517:A *547:A 0
4 *517:A *144:12 0
5 *517:A *144:14 0
6 *517:A *169:12 4.40812e-05
7 dac_n[6] *517:A 0.000740732
8 dac_n[7] *517:A 0
*RES
1 out_comp_p *517:A 20.0868 
*END

*D_NET *32 0.00131962
*CONN
*P phi_sample O
*I *540:X O *D sky130_fd_sc_hd__clkbuf_1
*CAP
1 phi_sample 0.000650366
2 *540:X 0.000650366
3 phi_sample *486:D 1.88904e-05
*RES
1 *540:X phi_sample 5.60423 
*END

*D_NET *33 0.00253562
*CONN
*P phi_sample_n O
*I *541:X O *D sky130_fd_sc_hd__clkbuf_1
*CAP
1 phi_sample_n 0.000779684
2 *541:X 0.000779684
3 phi_sample_n *540:A 0.000321529
4 phi_sample_n *541:A 5.41065e-05
5 phi_sample_n *140:21 0.000369348
6 phi_sample_n *140:32 0.000131726
7 phi_sample_n *173:14 9.95417e-05
*RES
1 *541:X phi_sample_n 18.0468 
*END

*D_NET *34 0.00155637
*CONN
*P rst_n I
*I *506:A I *D sky130_fd_sc_hd__clkbuf_1
*CAP
1 rst_n 0.000629642
2 *506:A 0.000629642
3 *506:A *394:B1 0
4 *506:A *512:A 0
5 *506:A *172:12 0
6 clk_comp *506:A 0.000247125
7 *495:A *506:A 4.99619e-05
*RES
1 rst_n *506:A 15.48 
*END

*D_NET *35 0.000732742
*CONN
*I *512:A I *D sky130_fd_sc_hd__dlygate4sd3_1
*I *394:Y O *D sky130_fd_sc_hd__a21oi_1
*CAP
1 *512:A 0.000246465
2 *394:Y 0.000246465
3 *512:A *474:D 0
4 *512:A *172:12 7.66083e-05
5 *512:A *172:14 0.000163204
6 *506:A *512:A 0
*RES
1 *394:Y *512:A 10.755 
*END

*D_NET *36 0.000293853
*CONN
*I *473:D I *D sky130_fd_sc_hd__dfrtp_4
*I *399:X O *D sky130_fd_sc_hd__and3_1
*CAP
1 *473:D 6.58756e-05
2 *399:X 6.58756e-05
3 *473:D *399:B 5.20968e-05
4 *473:D *473:CLK 0.000101271
5 *473:D *473:RESET_B 8.73389e-06
*RES
1 *399:X *473:D 8.775 
*END

*D_NET *37 0.000940527
*CONN
*I *474:D I *D sky130_fd_sc_hd__dfrtp_4
*I *404:X O *D sky130_fd_sc_hd__a21o_1
*CAP
1 *474:D 0.000257091
2 *404:X 0.000257091
3 *474:D *404:B1 0.000268285
4 *474:D *172:16 0.00015806
5 *512:A *474:D 0
*RES
1 *404:X *474:D 11.85 
*END

*D_NET *38 0.00053729
*CONN
*I *475:D I *D sky130_fd_sc_hd__dfrtp_4
*I *406:X O *D sky130_fd_sc_hd__a21o_1
*CAP
1 *475:D 0.00017202
2 *406:X 0.00017202
3 *475:D *451:A2 3.86607e-05
4 *475:D *451:B1 7.4027e-05
5 *475:D *475:CLK 6.71009e-05
6 *475:D *69:10 1.34618e-05
*RES
1 *406:X *475:D 9.82875 
*END

*D_NET *39 0.0132009
*CONN
*I *479:D I *D sky130_fd_sc_hd__dfrtp_1
*I *411:B I *D sky130_fd_sc_hd__and2_4
*I *412:A_N I *D sky130_fd_sc_hd__and2b_1
*I *463:A_N I *D sky130_fd_sc_hd__and2b_1
*I *452:B I *D sky130_fd_sc_hd__nor2_1
*I *393:X O *D sky130_fd_sc_hd__and4bb_4
*CAP
1 *479:D 0.00115407
2 *411:B 0
3 *412:A_N 0.00015872
4 *463:A_N 0.000198591
5 *452:B 8.87286e-05
6 *393:X 0
7 *39:43 0.000956534
8 *39:35 0.000910168
9 *39:14 0.00128587
10 *39:4 0.00204027
11 *412:A_N *413:B1 1.37188e-05
12 *412:A_N *463:B 0.000100162
13 *412:A_N *465:D 0.000114518
14 *412:A_N *465:RESET_B 6.04287e-05
15 *412:A_N *530:A 6.25067e-05
16 *412:A_N *532:A 0.000152631
17 *452:B *431:B 0
18 *452:B *65:35 3.05238e-05
19 *452:B *69:27 0.000196381
20 *452:B *116:65 7.5416e-05
21 *463:A_N *464:C 3.64998e-06
22 *479:D *396:A1 0.0001249
23 *479:D *404:A1 0.000128015
24 *479:D *479:CLK 9.21168e-05
25 *479:D *479:RESET_B 0.000203178
26 *479:D *518:A 0.000124895
27 *479:D *90:18 0.000118437
28 *479:D *158:87 0
29 *479:D *172:16 1.56428e-05
30 *479:D *172:20 0.000483248
31 *479:D *172:26 2.92496e-05
32 *39:14 *387:A 1.73877e-05
33 *39:14 *392:B 4.61744e-05
34 *39:14 *393:A_N 4.66108e-05
35 *39:14 *393:B_N 4.66108e-05
36 *39:14 *393:C 6.58423e-05
37 *39:14 *436:B1 8.71001e-05
38 *39:14 *441:S 9.54469e-05
39 *39:14 *453:B1 1.77043e-05
40 *39:14 *485:D 5.6155e-05
41 *39:14 *529:A 0.000763328
42 *39:14 *65:35 0.000108926
43 *39:14 *88:14 0.00019573
44 *39:14 *93:25 0
45 *39:14 *100:19 0.000114848
46 *39:14 *116:65 0.000145505
47 *39:14 *129:10 0.00013521
48 *39:14 *159:10 0
49 *39:14 *159:12 0
50 *39:14 *159:14 0
51 *39:14 *159:18 7.94789e-05
52 *39:14 *170:61 0.000179015
53 *39:14 *171:16 9.50342e-06
54 *39:14 *171:22 0.000159964
55 *39:14 *171:26 5.98004e-06
56 *39:14 *171:30 2.58818e-05
57 *39:14 *172:26 1.26548e-05
58 *39:35 *411:A 4.89295e-05
59 *39:35 *431:A 9.2741e-05
60 *39:35 *449:A2 0.00016063
61 *39:35 *453:A1 0.000539456
62 *39:35 *453:A2 0.000198939
63 *39:35 *454:A2 9.90094e-05
64 *39:35 *454:B1 0.000123225
65 *39:35 *488:D 4.56823e-05
66 *39:35 *69:27 1.53483e-05
67 *39:43 *411:A 4.21579e-05
68 *39:43 *413:A1 0.000133541
69 *39:43 *464:C 8.18223e-05
70 *39:43 *494:D 0.000124895
71 *39:43 *102:6 0.000156852
*RES
1 *393:X *39:4 1.6 
2 *39:4 *39:14 24.725 
3 *39:14 *452:B 6.66 
4 *39:14 *39:35 12.485 
5 *39:35 *39:43 9.555 
6 *39:43 *463:A_N 3.79 
7 *39:43 *412:A_N 10.49 
8 *39:35 *411:B 1.6 
9 *39:4 *479:D 26.93 
*END

*D_NET *40 0.000512467
*CONN
*I *465:D I *D sky130_fd_sc_hd__dfrtp_1
*I *413:X O *D sky130_fd_sc_hd__o21a_1
*CAP
1 *465:D 0.000122479
2 *413:X 0.000122479
3 *465:D *413:B1 2.39947e-05
4 *465:D *465:CLK 5.73726e-05
5 *465:D *530:A 7.1624e-05
6 *412:A_N *465:D 0.000114518
*RES
1 *413:X *465:D 10.065 
*END

*D_NET *41 0.00101256
*CONN
*I *466:D I *D sky130_fd_sc_hd__dfrtp_1
*I *416:X O *D sky130_fd_sc_hd__or2_1
*CAP
1 *466:D 0.000182012
2 *416:X 0.000182012
3 *466:D *410:A 5.07293e-05
4 *466:D *416:A 2.09155e-05
5 *466:D *446:A 0.000460726
6 *466:D *496:A 0.000116165
*RES
1 *416:X *466:D 12.66 
*END

*D_NET *42 0.00153042
*CONN
*I *467:D I *D sky130_fd_sc_hd__dfrtp_1
*I *419:X O *D sky130_fd_sc_hd__o21a_1
*CAP
1 *467:D 0.000573615
2 *419:X 0.000573615
3 *467:D *419:A2 3.1562e-06
4 *467:D *419:B1 5.06989e-05
5 *467:D *493:D 2.4997e-05
6 *467:D *493:SET_B 0.000200658
7 *467:D *106:39 3.64998e-06
8 *467:D *132:12 6.95473e-06
9 *467:D *163:72 9.30787e-05
*RES
1 *419:X *467:D 16.35 
*END

*D_NET *43 0.000536341
*CONN
*I *468:D I *D sky130_fd_sc_hd__dfrtp_1
*I *423:X O *D sky130_fd_sc_hd__and2_1
*CAP
1 *468:D 0.000235627
2 *423:X 0.000235627
3 *468:D *422:S 3.24046e-05
4 *468:D *423:B 0
5 *468:D *441:A0 3.26822e-05
*RES
1 *423:X *468:D 11.01 
*END

*D_NET *44 0.00125031
*CONN
*I *469:D I *D sky130_fd_sc_hd__dfstp_1
*I *427:X O *D sky130_fd_sc_hd__or2_1
*CAP
1 *469:D 0.000463114
2 *427:X 0.000463114
3 *469:D *426:S 0
4 *469:D *427:B 0
5 *469:D *432:S 1.91597e-05
6 *469:D *439:A1 0
7 *469:D *439:S 0.000114492
8 *469:D *469:CLK 0
9 *469:D *108:57 0.000124895
10 *469:D *116:24 0
11 dac_n[4] *469:D 6.55406e-05
12 dac_n[5] *469:D 0
*RES
1 *427:X *469:D 14.595 
*END

*D_NET *45 0.000665374
*CONN
*I *470:D I *D sky130_fd_sc_hd__dfrtp_1
*I *429:X O *D sky130_fd_sc_hd__and2_1
*CAP
1 *470:D 0.000209043
2 *429:X 0.000209043
3 *470:D *428:A0 0.000199021
4 *470:D *428:A1 6.72833e-06
5 *470:D *101:16 8.28018e-06
6 *470:D *145:78 3.32593e-05
*RES
1 *429:X *470:D 10.5 
*END

*D_NET *46 0.000745825
*CONN
*I *471:D I *D sky130_fd_sc_hd__dfstp_1
*I *433:X O *D sky130_fd_sc_hd__or2_1
*CAP
1 *471:D 0.000318359
2 *433:X 0.000318359
3 *471:D *433:B 0
4 *471:D *165:44 0.000109107
*RES
1 *433:X *471:D 12.795 
*END

*D_NET *47 0.00101135
*CONN
*I *476:D I *D sky130_fd_sc_hd__dfrtp_4
*I *434:X O *D sky130_fd_sc_hd__o22a_1
*CAP
1 *476:D 0.000280138
2 *434:X 0.000280138
3 *476:D *434:A2 0.000423557
4 *476:D *478:D 0
5 *476:D *99:16 2.75145e-05
*RES
1 *434:X *476:D 13.485 
*END

*D_NET *48 0.000804446
*CONN
*I *477:D I *D sky130_fd_sc_hd__dfstp_1
*I *436:X O *D sky130_fd_sc_hd__o22a_1
*CAP
1 *477:D 0.000264566
2 *436:X 0.000264566
3 *477:D *441:S 0.000275313
4 *477:D *467:RESET_B 0
*RES
1 *436:X *477:D 11.1 
*END

*D_NET *49 0.000588641
*CONN
*I *478:D I *D sky130_fd_sc_hd__dfstp_1
*I *438:X O *D sky130_fd_sc_hd__o21ba_1
*CAP
1 *478:D 0.000222484
2 *438:X 0.000222484
3 *478:D *434:A2 0
4 *478:D *434:B2 0
5 *478:D *478:CLK 0
6 *478:D *99:16 0.000116151
7 *478:D *118:41 0
8 *478:D *158:12 2.75229e-05
9 *476:D *478:D 0
*RES
1 *438:X *478:D 11.07 
*END

*D_NET *50 0.000748693
*CONN
*I *480:D I *D sky130_fd_sc_hd__dfstp_1
*I *440:X O *D sky130_fd_sc_hd__or2_1
*CAP
1 *480:D 0.000164176
2 *440:X 0.000164176
3 *480:D *482:SET_B 0.000227159
4 *480:D *543:A 9.30787e-05
5 *480:D *544:A 9.30787e-05
6 *480:D *166:12 7.02508e-06
*RES
1 *440:X *480:D 11.31 
*END

*D_NET *51 0.000476747
*CONN
*I *481:D I *D sky130_fd_sc_hd__dfrtp_1
*I *442:X O *D sky130_fd_sc_hd__and2_1
*CAP
1 *481:D 0.000213814
2 *442:X 0.000213814
3 *481:D *447:A3 4.91189e-05
*RES
1 *442:X *481:D 10.755 
*END

*D_NET *52 0.000270439
*CONN
*I *482:D I *D sky130_fd_sc_hd__dfstp_1
*I *444:X O *D sky130_fd_sc_hd__or2_1
*CAP
1 *482:D 8.90866e-05
2 *444:X 8.90866e-05
3 *482:D *444:B 0
4 *482:D *542:A 6.47516e-05
5 *482:D *87:47 2.75145e-05
*RES
1 *444:X *482:D 9.03 
*END

*D_NET *53 0.000915897
*CONN
*I *483:D I *D sky130_fd_sc_hd__dfrtp_1
*I *446:X O *D sky130_fd_sc_hd__or2_1
*CAP
1 *483:D 0.00033528
2 *446:X 0.00033528
3 *483:D *447:A2 7.3722e-05
4 *483:D *447:B1 7.08493e-05
5 *483:D *137:12 0.000100765
*RES
1 *446:X *483:D 13.485 
*END

*D_NET *54 0.000744565
*CONN
*I *484:D I *D sky130_fd_sc_hd__dfrtp_1
*I *447:X O *D sky130_fd_sc_hd__a31o_1
*CAP
1 *484:D 0.00025849
2 *447:X 0.00025849
3 *484:D *447:A1 7.06865e-05
4 *484:D *504:A 2.75145e-05
5 *484:D *117:12 4.70174e-05
6 *484:D *117:14 5.05521e-05
7 *484:D *117:85 3.18137e-05
*RES
1 *447:X *484:D 11.505 
*END

*D_NET *55 0.000770533
*CONN
*I *485:D I *D sky130_fd_sc_hd__dfstp_1
*I *449:Y O *D sky130_fd_sc_hd__o21ai_1
*CAP
1 *485:D 0.000189404
2 *449:Y 0.000189404
3 *485:D *453:B1 0.000132827
4 *485:D *466:CLK 4.66108e-05
5 *485:D *485:CLK 7.26398e-05
6 *485:D *498:A 5.49293e-05
7 *485:D *116:65 2.85623e-05
8 *39:14 *485:D 5.6155e-05
*RES
1 *449:Y *485:D 11.355 
*END

*D_NET *56 0.00129885
*CONN
*I *486:D I *D sky130_fd_sc_hd__dfstp_1
*I *451:Y O *D sky130_fd_sc_hd__o21ai_1
*CAP
1 *486:D 0.000405734
2 *451:Y 0.000405734
3 *486:D *475:CLK 6.04319e-05
4 *486:D *486:SET_B 9.24881e-05
5 *486:D *99:18 0
6 *486:D *116:99 4.28112e-06
7 *486:D *165:51 0
8 *486:D *173:20 0.000311288
9 phi_sample *486:D 1.88904e-05
*RES
1 *451:Y *486:D 13.74 
*END

*D_NET *57 0.00111018
*CONN
*I *487:D I *D sky130_fd_sc_hd__dfstp_1
*I *453:Y O *D sky130_fd_sc_hd__o21ai_1
*CAP
1 *487:D 0.000309438
2 *453:Y 0.000309438
3 *487:D *431:A 0.000120909
4 *487:D *446:A 9.82856e-06
5 *487:D *453:A2 7.03276e-05
6 *487:D *454:A1 2.16389e-05
7 *487:D *529:A 0
8 *487:D *87:20 6.12863e-05
9 *487:D *157:12 0
10 *487:D *157:16 0
11 *487:D *157:59 0.000118445
12 *487:D *165:26 8.88715e-05
*RES
1 *453:Y *487:D 14.145 
*END

*D_NET *58 0.000468332
*CONN
*I *488:D I *D sky130_fd_sc_hd__dfstp_1
*I *454:X O *D sky130_fd_sc_hd__a211o_1
*CAP
1 *488:D 0.000211325
2 *454:X 0.000211325
3 *488:D *488:SET_B 0
4 *488:D *157:12 0
5 *39:35 *488:D 4.56823e-05
*RES
1 *454:X *488:D 10.065 
*END

*D_NET *59 0.000412213
*CONN
*I *489:D I *D sky130_fd_sc_hd__dfstp_1
*I *455:X O *D sky130_fd_sc_hd__a211o_1
*CAP
1 *489:D 0.000125472
2 *455:X 0.000125472
3 *489:D *456:A2 0
4 *489:D *456:B1 0.000146034
5 *489:D *527:A 1.52352e-05
*RES
1 *455:X *489:D 9.375 
*END

*D_NET *60 0.0010804
*CONN
*I *490:D I *D sky130_fd_sc_hd__dfstp_1
*I *456:X O *D sky130_fd_sc_hd__a211o_1
*CAP
1 *490:D 0.00035195
2 *456:X 0.00035195
3 *490:D *491:SET_B 0
4 *490:D *526:A 9.91257e-05
5 *490:D *125:12 2.91399e-05
6 *490:D *157:73 0.000132072
7 dac_p[3] *490:D 0.000116158
*RES
1 *456:X *490:D 12.48 
*END

*D_NET *61 0.000317401
*CONN
*I *491:D I *D sky130_fd_sc_hd__dfstp_1
*I *458:X O *D sky130_fd_sc_hd__or2_1
*CAP
1 *491:D 7.82792e-05
2 *458:X 7.82792e-05
3 *491:D *523:A 4.82919e-05
4 *491:D *157:73 6.5525e-05
5 dac_p[1] *491:D 4.70256e-05
*RES
1 *458:X *491:D 9.03 
*END

*D_NET *62 0.00104369
*CONN
*I *492:D I *D sky130_fd_sc_hd__dfstp_1
*I *460:X O *D sky130_fd_sc_hd__or3_1
*CAP
1 *492:D 0.000326396
2 *460:X 0.000326396
3 *492:D *460:C 0.000390899
4 *492:D *462:A 0
*RES
1 *460:X *492:D 13.335 
*END

*D_NET *63 0.00128554
*CONN
*I *493:D I *D sky130_fd_sc_hd__dfstp_1
*I *462:X O *D sky130_fd_sc_hd__or3_1
*CAP
1 *493:D 0.000282937
2 *462:X 0.000282937
3 *493:D *422:S 0.000114852
4 *493:D *459:B1 0.000161985
5 *493:D *462:B 4.77719e-05
6 *493:D *532:A 7.87003e-05
7 *493:D *163:72 0.000291358
8 *467:D *493:D 2.4997e-05
*RES
1 *462:X *493:D 14.445 
*END

*D_NET *64 0.000604546
*CONN
*I *494:D I *D sky130_fd_sc_hd__dfstp_1
*I *464:X O *D sky130_fd_sc_hd__or3_1
*CAP
1 *494:D 0.000170206
2 *464:X 0.000170206
3 *494:D *457:S 0.000139238
4 *494:D *143:69 0
5 *494:D *143:71 0
6 *39:43 *494:D 0.000124895
*RES
1 *464:X *494:D 9.975 
*END

*D_NET *65 0.0140145
*CONN
*I *426:S I *D sky130_fd_sc_hd__mux2_1
*I *425:B I *D sky130_fd_sc_hd__nor2_1
*I *455:A2 I *D sky130_fd_sc_hd__a211o_1
*I *441:S I *D sky130_fd_sc_hd__mux2_1
*I *424:X O *D sky130_fd_sc_hd__or4bb_4
*CAP
1 *426:S 0.00134696
2 *425:B 0
3 *455:A2 0.000305457
4 *441:S 0.00103855
5 *424:X 0.0004704
6 *65:41 0.00109531
7 *65:35 0.00303512
8 *65:12 0.00240726
9 *426:S *426:A1 1.83847e-05
10 *426:S *427:B 4.00719e-05
11 *426:S *432:A0 0.000148477
12 *426:S *87:69 4.82863e-05
13 *426:S *165:10 0.000119762
14 *441:S *387:A 5.83121e-06
15 *441:S *436:A2 0.000346135
16 *441:S *436:B1 8.73389e-06
17 *441:S *436:B2 2.96426e-05
18 *441:S *441:A0 2.65814e-06
19 *441:S *442:B 0
20 *441:S *170:42 1.46828e-05
21 *441:S *171:26 4.5783e-05
22 *441:S *171:30 4.43871e-06
23 *441:S *172:26 0.000119756
24 *441:S *172:37 7.14699e-05
25 *455:A2 *455:B1 0.000276699
26 *455:A2 *456:B1 3.05233e-05